  22
        -29.90589033
 C          2.7399345354       -1.6780008701       -0.3982945996
 C          1.7822596027       -0.5493616734       -0.1692249164
 C          2.2244043748        0.7474005596        0.0414568902
 C          1.3193106595        1.7706366396        0.2593507755
 C         -0.0473215818        1.5347673978        0.2740518403
 C         -1.0087526823        2.6600660023        0.5114406126
 C         -0.4985171687        0.2289686812        0.0623279312
 C         -1.9864697909       -0.0456957056        0.0747540520
 C         -2.3278769831       -1.4238156118       -0.1630863179
 N         -2.6197590231       -2.5132561810       -0.3506490838
 C          0.4137370643       -0.7904792295       -0.1550118919
 H          3.7554116673       -1.3090993069       -0.5181955225
 H          2.4617913621       -2.2396420936       -1.2884629672
 H          2.7191902091       -2.3655348993        0.4470548478
 H          3.2831262248        0.9626791392        0.0353258868
 H          1.6823804609        2.7756686264        0.4212353352
 H         -0.4725577711        3.5945569096        0.6548759456
 H         -1.6151084074        2.4743630831        1.3983968327
 H         -1.6847802693        2.7807033778       -0.3355032913
 H         -2.4821193654        0.5592099185       -0.6936571350
 H         -2.4087724061        0.2414022243        1.0449928011
 H          0.0565713086       -1.7975615431       -0.3182121507
