  49
        -65.99881992
 C         -6.1896820793       -0.4458549461       -0.2208477260
 C         -5.1233449112       -1.2380262283       -0.2083416362
 C         -3.7457929804       -0.8379222650        0.0289411597
 C         -3.3531504486        0.4657281041        0.3200376576
 C         -2.0271055407        0.7889354898        0.5259546401
 C         -1.0082730064       -0.1684164078        0.4719610979
 C         -1.4141545924       -1.4816622797        0.2057975535
 C         -2.7376736038       -1.8007536373       -0.0229552143
 S         -0.2736263054       -2.8337331865        0.2278752544
 C          1.2398421687       -1.9681168687       -0.0744899981
 C          2.2888116554       -2.7267413340       -0.5527897122
 C          3.5569763006       -2.1788331641       -0.7438580681
 C          4.6945402419       -2.9429946241       -1.2293653070
 C          4.7048138041       -4.2291179126       -1.5615398816
 C          3.7094983304       -0.8291219080       -0.4369624709
 C          2.6540596286       -0.0645830465        0.0188325889
 C          1.3799569350       -0.6047619136        0.2155016433
 N          0.3250954733        0.1738311801        0.6861012653
 C          0.6213097949        1.4532896100        1.2979239647
 C          0.7124207040        2.6328996184        0.3186082161
 C          0.8534816082        3.9510840082        1.0760534028
 C          1.0625575676        5.1556226574        0.1571055304
 C         -0.0964348020        5.4459380047       -0.7984192415
 C         -1.4020066758        5.7717140831       -0.0823931269
 H         -7.1745408934       -0.8373931992       -0.4086891189
 H         -6.1304160368        0.6150353663       -0.0483356955
 H         -5.2553554464       -2.2972020515       -0.3933595633
 H         -4.0890791108        1.2515089706        0.3856578005
 H         -1.7970181531        1.8183397792        0.7392860345
 H         -2.9856225797       -2.8329323861       -0.2233742230
 H          2.1046898999       -3.7702824915       -0.7525834819
 H          5.6109856602       -2.3713743141       -1.3171401362
 H          3.8308943721       -4.8540008971       -1.4983734473
 H          5.6022394911       -4.7083425399       -1.9131854442
 H          4.6750170352       -0.3600721238       -0.5618772549
 H          2.8452008126        0.9741149370        0.2255234688
 H          1.5615498716        1.3549673287        1.8480514412
 H         -0.1582273879        1.6557000854        2.0386290888
 H         -0.1787764553        2.6536225014       -0.3080072052
 H          1.5659803762        2.5054986927       -0.3488909095
 H          1.7127911923        3.8801950765        1.7485117688
 H         -0.0291722685        4.1118470610        1.6976989715
 H          1.9678252912        4.9941767489       -0.4335954544
 H          1.2296685970        6.0377380680        0.7801277222
 H         -0.2487532751        4.5969647797       -1.4670180232
 H          0.1860931587        6.2992910495       -1.4195670494
 H         -1.7847505002        4.9069715478        0.4535737952
 H         -2.1573961024        6.0818127680       -0.8008121755
 H         -1.2541041160        6.5807414594        0.6298887695
