  25
        -37.88719320
 C          3.9146112668       -0.9185668575       -0.4369200835
 C          3.0893267818       -0.0963932073        0.1959747958
 C          1.6287182659       -0.1521230197        0.1114534335
 C          1.0050646260       -1.3866515546        0.0336328213
 C         -0.3803720688       -1.4378376313       -0.0000952153
 N         -1.2313853015       -2.5171975989       -0.0318551153
 C         -2.4224473100       -2.0160018787       -0.0001431659
 N         -2.4408017491       -0.6497025251        0.0439302326
 C         -1.1321197560       -0.2433556925        0.0425703263
 C         -0.5392597942        1.0173745884        0.1178626320
 C         -1.3416976753        2.2343334405        0.1995982841
 C         -2.4755535073        2.4511657731       -0.4559146995
 C          0.8652221893        1.0468486561        0.1416232932
 N          1.5130810965        2.2601788702        0.0624413674
 H          4.9824451645       -0.8556140845       -0.3138805810
 H          3.5534090205       -1.6762909064       -1.1108725112
 H          3.5091488532        0.6626283893        0.8483895760
 H          1.5832233291       -2.2956210947        0.0321933824
 H         -3.3244584529       -2.5972209689       -0.0117417001
 H         -3.2471049696       -0.0534578611        0.1191187008
 H         -0.9749066352        3.0052408397        0.8704835345
 H         -2.8643380508        1.7487474261       -1.1744193423
 H         -3.0364549993        3.3616550317       -0.3300069263
 H          0.9846744322        3.0776946476        0.3162176301
 H          2.4852272028        2.2788260111        0.3190730764
