  24
        -40.17765301
 C         -4.0344595160       -2.2546220973        0.1999290128
 C         -4.1409749278       -0.9526370920       -0.0336537371
 C         -3.0565140212        0.0244788428       -0.0404706910
 C         -3.3766901328        1.3840143521       -0.0672642406
 C         -2.3802741907        2.3420992384       -0.0615825098
 C         -1.0525527278        1.9631642547       -0.0381519202
 C         -0.6966844857        0.6099163639       -0.0263711241
 C          0.7140157608        0.2702111750       -0.0137709335
 C          1.2374628814       -0.9636102824       -0.0969651862
 C          2.6408884769       -1.2967329702       -0.0857878312
 C          3.6790656669       -0.4751754428        0.0246121854
 F          3.6612202135        0.8470614389        0.1504289504
 F          4.9443430397       -0.8928976343        0.0240957982
 C         -1.7147056496       -0.3430032994       -0.0254084471
 H         -4.8979160940       -2.8973723251        0.1891739060
 H         -3.0958339827       -2.7341414291        0.4192037532
 H         -5.1215984301       -0.5342978196       -0.2260988300
 H         -4.4143106406        1.6855158661       -0.0845980917
 H         -2.6410621510        3.3903089820       -0.0765823833
 H         -0.2767099240        2.7150162292       -0.0358779315
 H          1.3760924888        1.1211105788        0.0627813357
 H          0.5877125557       -1.8216254051       -0.1877622939
 H          2.8982603546       -2.3418074821       -0.1764803673
 H         -1.4608320840       -1.3903381825       -0.0168597752
