32
 energy: -53.337402015690 gnorm: 0.000196313282 xtb: 6.4.1 (23d549d)
C         2.42970190480000    2.83871367680000    0.53374030390000
C         1.42035010800000    2.50274128150000   -0.25722216540000
C         0.69616899790000    1.23659554610000   -0.18519952640000
C        -0.67992342040000    1.22918564910000   -0.38463043160000
C        -1.44503267600000    0.07938865880000   -0.22904829010000
C        -2.90936540720000    0.25250145010000   -0.41976087610000
O        -3.39713792150000    1.11383573600000   -1.11014438080000
O        -3.64275335970000   -0.61512008710000    0.29004930500000
C        -5.05072557250000   -0.46936348560000    0.18312789230000
C        -0.83146959110000   -1.13373053750000    0.12242197240000
C        -1.57044671650000   -2.38747867560000    0.25285688300000
C        -1.28212160280000   -3.32712268580000    1.14276563910000
C         0.55209173180000   -1.13054189780000    0.29055720150000
C         1.31170171480000    0.01768646180000    0.13201503630000
C         2.79166569870000   -0.12699098230000    0.24402945850000
O         3.36172567960000   -0.67267268280000    1.15411486130000
O         3.40852179900000    0.36149985290000   -0.83909094280000
C         4.82528802770000    0.27307127410000   -0.85239199750000
H         2.90934507430000    3.79974200830000    0.46004019290000
H         2.80323633460000    2.17518394590000    1.29688260270000
H         1.03404959330000    3.21386528790000   -0.97575600900000
H        -1.18937482710000    2.14484728090000   -0.64834668300000
H        -5.48376177220000   -1.22649332740000    0.83140920380000
H        -5.37119701250000   -0.61707264730000   -0.85040719840000
H        -5.35379937330000    0.52988061500000    0.50258038640000
H        -2.39764388230000   -2.52632499920000   -0.42870373390000
H        -0.49178099250000   -3.20685307440000    1.86476311690000
H        -1.84520516740000   -4.24270497950000    1.19814773960000
H         1.05825211450000   -2.05577185800000    0.52191371080000
H         5.13447387680000    0.45692821630000   -1.87808973380000
H         5.14749009770000   -0.71641287440000   -0.52151312150000
H         5.25308328840000    1.02617936420000   -0.18689368460000
