  39
        -45.47825944
 C         -5.0583022672       -1.9196491049       -0.5935645549
 C         -5.4089016708       -0.5069892165       -0.1408148731
 C         -4.2448110540        0.2146397036        0.5389598776
 C         -3.0876496537        0.5241361275       -0.4084250950
 C         -2.0001038632        1.3517858080        0.2722880151
 C         -0.8354354029        1.6369896989       -0.6728487092
 C          0.2510697051        2.5158587796       -0.0537733714
 C          1.0381867014        1.8214499562        1.0657324061
 C          1.6970145058        0.5609452837        0.5951344351
 C          1.1821195972       -0.7341039731        0.8795968432
 C          1.9051823504       -1.7490611861        0.3468302546
 C          1.6660780687       -3.2140527894        0.4402025113
 S          3.2671193074       -1.1305163004       -0.5370276840
 C          2.8269231927        0.5111736323       -0.1637640368
 C          3.6599290287        1.6288706553       -0.6859237480
 H         -5.9381961958       -2.4159927959       -0.9970174588
 H         -4.6883009138       -2.5066613155        0.2445023251
 H         -4.2950652584       -1.9037261626       -1.3670468107
 H         -6.2437706817       -0.5597961957        0.5624417887
 H         -5.7402221201        0.0777052789       -1.0021426467
 H         -3.8799379275       -0.3950615565        1.3692720142
 H         -4.6141795476        1.1541094843        0.9586559875
 H         -3.4683945518        1.0708986619       -1.2747527608
 H         -2.6462377961       -0.4062200127       -0.7699384860
 H         -1.6422476393        0.8097723062        1.1489745895
 H         -2.4256305479        2.2974629233        0.6180715169
 H         -1.2234951007        2.1398668817       -1.5625100567
 H         -0.3912849958        0.6928025326       -0.9956335223
 H         -0.2033076170        3.4253719530        0.3467837369
 H          0.9501181529        2.8105578092       -0.8390629987
 H          0.3689256586        1.5854207315        1.8937293961
 H          1.7955597310        2.5160371653        1.4391941791
 H          0.2968455587       -0.8948252661        1.4702056312
 H          0.7680154476       -3.4058986276        1.0229590765
 H          2.5088569349       -3.7124668012        0.9191790295
 H          1.5418122657       -3.6493542679       -0.5512892877
 H          4.7028257915        1.3258688178       -0.7545355778
 H          3.5856550518        2.4956012209       -0.0318959307
 H          3.3303713065        1.9245369230       -1.6835121590
  39
        -45.47815666
 C         -3.3828631104       -1.8189299550        0.6127304399
 C         -2.5786166243       -1.2086922446       -0.5288954675
 C         -3.1956473739        0.0745563055       -1.0866047528
 C         -3.3441199904        1.2168202832       -0.0783520418
 C         -2.0498748528        1.6332851473        0.6219766591
 C         -0.9608367636        2.0831826210       -0.3485131478
 C          0.2303410170        2.7441435614        0.3450000687
 C          0.9897212307        1.8110907301        1.2993571535
 C          1.3650591202        0.5052397566        0.6665295921
 C          0.7808562585       -0.7329751418        1.0518668971
 C          1.2242701549       -1.8021250124        0.3457049789
 C          0.8198451346       -3.2281963319        0.4647669723
 S          2.4020280272       -1.3092645022       -0.8315221462
 C          2.2735167855        0.3544348166       -0.3373241372
 C          3.1073717577        1.3854511169       -1.0138602478
 H         -2.9563995733       -2.7765617269        0.9044357154
 H         -4.4146909537       -1.9826922889        0.3082498707
 H         -3.3817389717       -1.1688168048        1.4838904075
 H         -2.5168457806       -1.9351288655       -1.3435900781
 H         -1.5595719266       -1.0133147227       -0.1931700827
 H         -4.1888667313       -0.1568345419       -1.4814391796
 H         -2.5853772654        0.4151364057       -1.9255712217
 H         -4.0748065892        0.9320325007        0.6817198188
 H         -3.7513466224        2.0821757157       -0.6086840783
 H         -1.6827221624        0.8040028829        1.2250173748
 H         -2.2811807332        2.4585528424        1.3016432835
 H         -1.3898744351        2.8005955212       -1.0532637989
 H         -0.6023067560        1.2270485756       -0.9218890623
 H         -0.1148641162        3.6122059725        0.9123595879
 H          0.9181390832        3.1037203514       -0.4224287483
 H          0.3742041425        1.6093143712        2.1769337709
 H          1.8921507696        2.3273593753        1.6405194539
 H          0.0603676775       -0.8190025846        1.8474504503
 H          0.1228794360       -3.3466222562        1.2912783591
 H          1.6876342793       -3.8632540960        0.6404302786
 H          0.3366035930       -3.5685277526       -0.4513922070
 H          4.0415682128        0.9485502289       -1.3610435710
 H          3.3323195234        2.1995196941       -0.3270426937
 H          2.5885201998        1.7999964719       -1.8798792759
  39
        -45.47778377
 C         -6.3680535614       -0.6283833930        0.9216151713
 C         -5.3816601747       -0.2132418442       -0.1634674701
 C         -4.9344878703        1.2363318672        0.0106998923
 C         -4.0532911238        1.7473002950       -1.1303285199
 C         -2.7348847328        0.9944488960       -1.3177336397
 C         -1.8206163783        1.0552852080       -0.0963343241
 C         -0.4550481444        0.4365070114       -0.3813915550
 C          0.4518327755        0.4613637421        0.8539488401
 C          1.7887926427       -0.1382307799        0.5482983588
 C          2.0330735338       -1.5381560487        0.5776684097
 C          3.2975753380       -1.8861877033        0.2344575796
 C          3.9047388756       -3.2417960743        0.1588759722
 S          4.2382523266       -0.4753885289       -0.1434600212
 C          2.8874131257        0.5724026475        0.1713188901
 C          3.0361453241        2.0473612645        0.0207787270
 H         -6.6729695788       -1.6638927788        0.7879988643
 H         -7.2573796905       -0.0023392656        0.8904700339
 H         -5.9157282742       -0.5284437148        1.9062337319
 H         -5.8494626645       -0.3306341695       -1.1438458867
 H         -4.5146810294       -0.8746828735       -0.1262597021
 H         -4.4068746830        1.3409690936        0.9603888089
 H         -5.8229494836        1.8713838594        0.0629581387
 H         -3.8304894204        2.8019235062       -0.9481723506
 H         -4.6196386653        1.6880833777       -2.0634386772
 H         -2.2108259983        1.4353178389       -2.1700520126
 H         -2.9369119014       -0.0484327925       -1.5679575572
 H         -2.2818097640        0.5228723044        0.7373040523
 H         -1.6893116331        2.0975853137        0.2052476463
 H          0.0317211952        0.9805076863       -1.1942694209
 H         -0.5835547700       -0.5974852695       -0.7098381328
 H         -0.0224414426       -0.1060990810        1.6581253638
 H          0.5737416794        1.4923238484        1.1913772812
 H          1.2801613739       -2.2565019840        0.8528137606
 H          3.1651122535       -3.9936059014        0.4245164790
 H          4.7506483303       -3.3243731650        0.8412626942
 H          4.2681626675       -3.4462470379       -0.8481437570
 H          4.0524446331        2.2949162501       -0.2746580274
 H          2.8155119122        2.5539458043        0.9611129375
 H          2.3517069426        2.4295894967       -0.7368156810
  39
        -45.47746603
 C         -5.7666730577        0.3327834459       -1.6639756788
 C         -5.5425278428        1.2607735293       -0.4755391338
 C         -4.0917369597        1.2766927636        0.0071397925
 C         -3.6473451582       -0.0543061073        0.6108833235
 C         -2.2929724681        0.0278727224        1.3174758510
 C         -1.1201245044        0.4219270815        0.4186533302
 C         -0.8616639883       -0.5719175986       -0.7103904962
 C          0.4087264742       -0.2280483944       -1.4980161546
 C          1.6378290109       -0.3375588850       -0.6494447986
 C          2.1440671434       -1.5867634042       -0.1958815310
 C          3.2526940719       -1.4871770867        0.5773941405
 C          4.0456092869       -2.5709748634        1.2167342528
 S          3.7146368318        0.1763637058        0.7714078967
 C          2.3815455909        0.7139573227       -0.2076863060
 C          2.1936917588        2.1704929223       -0.4632286823
 H         -6.7908483994        0.4162039690       -2.0209735144
 H         -5.5880956629       -0.7033977673       -1.3888348893
 H         -5.0974060887        0.5934852662       -2.4814548610
 H         -6.1942314183        0.9588959564        0.3477764514
 H         -5.8250220189        2.2764620134       -0.7637541031
 H         -3.9836778750        2.0579401978        0.7641525105
 H         -3.4457026728        1.5361286592       -0.8335168846
 H         -3.6051757570       -0.8186528428       -0.1651685603
 H         -4.3936273094       -0.3725212896        1.3438465481
 H         -2.0764816984       -0.9447463911        1.7671704967
 H         -2.3646651026        0.7557102569        2.1300624525
 H         -0.2228492680        0.4833964112        1.0395700704
 H         -1.2963295404        1.4131291140       -0.0034652751
 H         -1.7059729353       -0.5767656989       -1.4017943147
 H         -0.7639536146       -1.5750127373       -0.2894583052
 H          0.3233480432        0.7832313655       -1.8984586840
 H          0.4993360254       -0.9201175518       -2.3398360464
 H          1.6888588607       -2.5285100415       -0.4498403218
 H          3.6028802580       -3.5376787839        0.9879179832
 H          4.0716820314       -2.4432309045        2.2988680577
 H          5.0739672974       -2.5610638995        0.8555085577
 H          2.9732086198        2.7410247136        0.0352594495
 H          1.2260771837        2.5072821753       -0.0913138362
 H          2.2399122820        2.3832972726       -1.5318327557
  39
        -45.47745310
 C         -5.1575366735        1.6290246748       -1.4247670397
 C         -5.3431504968        0.4643735365       -0.4591290736
 C         -4.3245507379       -0.6584527982       -0.6639017866
 C         -2.8671999368       -0.2522933200       -0.4386994582
 C         -2.5809329267        0.1924594616        0.9944129169
 C         -1.0897046663        0.3795955294        1.2739315846
 C         -0.4849487124        1.5618545967        0.5210263722
 C          0.9959040811        1.7641784624        0.8633814938
 C          1.8270226664        0.5775514565        0.4811043730
 C          2.3073602967       -0.3677346039        1.4289289897
 C          3.0221678375       -1.3836381132        0.8867582888
 C          3.6700495912       -2.5364292976        1.5673764234
 S          3.1262894563       -1.2047487168       -0.8382354499
 C          2.1899667710        0.2614110400       -0.7929240484
 C          1.8824738443        0.9732325151       -2.0636595617
 H         -5.9669258270        2.3467891041       -1.3100666473
 H         -5.1576395125        1.2742008494       -2.4534150518
 H         -4.2199620711        2.1463725430       -1.2385565639
 H         -6.3425873534        0.0451714680       -0.6007854965
 H         -5.2875312408        0.8300653855        0.5674125641
 H         -4.4247719428       -1.0373345672       -1.6844875345
 H         -4.5703563931       -1.4782125555        0.0162536036
 H         -2.6032409413        0.5435502354       -1.1351644670
 H         -2.2336484165       -1.1129245586       -0.6696160237
 H         -2.9732009656       -0.5638045073        1.6793532270
 H         -3.0993596782        1.1302614913        1.2027889229
 H         -0.5528892457       -0.5323625059        1.0031376224
 H         -0.9500278734        0.5385243163        2.3465478373
 H         -1.0348661863        2.4716240420        0.7751207617
 H         -0.5783539920        1.4000358244       -0.5529198930
 H          1.0979911821        1.9370992312        1.9365697638
 H          1.3616782723        2.6536524334        0.3431454770
 H          2.1202007910       -0.2806637530        2.4852795535
 H          3.5037028931       -2.4733776473        2.6403061147
 H          4.7432976000       -2.5426857532        1.3775028986
 H          3.2620750945       -3.4792739616        1.2030596619
 H          2.7014739435        0.8591504291       -2.7711375619
 H          1.7224436627        2.0331282243       -1.8756971093
 H          0.9812507038        0.5675195546       -2.5267761220
  39
        -45.47733375
 C         -6.0382212293       -0.8524431338        1.0835953519
 C         -4.6388326157       -0.3608719472        0.7338372492
 C         -4.5814471455        0.2118529406       -0.6809636375
 C         -3.1724897086        0.6170086418       -1.1150144175
 C         -2.6222712099        1.8061915328       -0.3297055399
 C         -1.3267218586        2.3679611812       -0.9179500014
 C         -0.1598986260        1.3810641034       -0.9593982819
 C          0.2572296599        0.8778044462        0.4271595197
 C          1.4809576564        0.0212089449        0.3294920525
 C          1.4304314149       -1.3672409634        0.0298321131
 C          2.6468555662       -1.9603816566       -0.0513522333
 C          2.9748835002       -3.3820188771       -0.3402319566
 S          3.9106136483       -0.8049301431        0.2414152156
 C          2.7569807994        0.4754320873        0.4693043845
 C          3.2248961902        1.8551258223        0.7817384426
 H         -6.0631036038       -1.2532366520        2.0944317997
 H         -6.3517120625       -1.6354707265        0.3962140545
 H         -6.7550115182       -0.0364160091        1.0204523065
 H         -3.9330247169       -1.1911799163        0.8149217226
 H         -4.3398584832        0.4030249172        1.4534362672
 H         -5.2439112879        1.0785152659       -0.7458645970
 H         -4.9580370636       -0.5422275291       -1.3771872708
 H         -3.1954441713        0.8793425122       -2.1759956619
 H         -2.5090652166       -0.2420053237       -0.9999461324
 H         -2.4546413283        1.5203714602        0.7089509648
 H         -3.3699912023        2.6037957479       -0.3323566182
 H         -1.0281352410        3.2396044715       -0.3292788378
 H         -1.5228356643        2.7115103258       -1.9370951101
 H          0.6965961832        1.8788740442       -1.4212748499
 H         -0.4148500060        0.5277474797       -1.5895321640
 H         -0.5512431915        0.2890430437        0.8630856061
 H          0.4507140455        1.7327388346        1.0780034411
 H          0.5066288421       -1.9005186936       -0.1150569440
 H          2.0594906583       -3.9497425025       -0.4905866627
 H          3.5317828160       -3.8249902654        0.4853757606
 H          3.5893443501       -3.4617809317       -1.2369665276
 H          4.3096024679        1.8791236543        0.8470771749
 H          2.8127756093        2.1946157778        1.7327269448
 H          2.9082941414        2.5553035746        0.0083731287
  39
        -45.47712314
 C         -5.7153095805       -0.1945488606       -2.1149640597
 C         -4.8953280882       -0.2109176098       -0.8304826941
 C         -4.8056674345        1.1787651252       -0.2034794031
 C         -4.1276644689        1.1885929938        1.1677465948
 C         -2.6756362434        0.7076846135        1.1719768511
 C         -1.7453134393        1.5935855239        0.3457597557
 C         -0.2722391389        1.2130635050        0.4933082956
 C          0.0676856446       -0.1264874862       -0.1700397424
 C          1.5237724304       -0.4440377268       -0.0256403787
 C          2.0280212707       -1.2657898464        1.0197373470
 C          3.3745124424       -1.4185289932        1.0050996361
 C          4.2350653241       -2.2030882241        1.9301416133
 S          4.0746680753       -0.5360580836       -0.3175464923
 C          2.5120328574        0.0296267072       -0.8338897641
 C          2.4123957086        0.9305931562       -2.0147661847
 H         -5.7625790622       -1.1891210576       -2.5528715746
 H         -5.2694747488        0.4799086492       -2.8432172507
 H         -6.7309726525        0.1414305121       -1.9167218701
 H         -3.8937158255       -0.5810855990       -1.0552997740
 H         -5.3537297011       -0.8992461090       -0.1163414628
 H         -5.8183557542        1.5729769205       -0.0835591165
 H         -4.2767278468        1.8493172102       -0.8830282542
 H         -4.7037563381        0.5533034914        1.8457636847
 H         -4.1616984104        2.2068976537        1.5639801675
 H         -2.6356224363       -0.3186179186        0.8068345658
 H         -2.3222892805        0.7010549976        2.2066517371
 H         -1.8734899877        2.6301381908        0.6682542641
 H         -2.0190345859        1.5378083850       -0.7093576491
 H         -0.0104963757        1.1642355910        1.5528627088
 H          0.3442279316        1.9910480734        0.0372839653
 H         -0.2041352567       -0.0804917208       -1.2274806227
 H         -0.5116848417       -0.9247905164        0.2952559242
 H          1.3923888432       -1.7289159186        1.7547121763
 H          3.6204131762       -2.6876027052        2.6853212803
 H          4.9581687836       -1.5563745778        2.4269732714
 H          4.7903184748       -2.9667157046        1.3855816261
 H          3.1994313674        0.7064571890       -2.7318339212
 H          2.5184284535        1.9745930515       -1.7147392834
 H          1.4464165220        0.8143108021       -2.5021775298
  39
        -45.47707970
 C         -3.4774785034       -1.8298717853       -0.8329722090
 C         -4.0404004738       -0.8650068148        0.2047693845
 C         -3.3075614702        0.4769014304        0.2325025506
 C         -1.8626831769        0.3494726690        0.7084336961
 C         -1.1590573445        1.6919855440        0.9064733510
 C         -1.0871783689        2.5813163723       -0.3371488619
 C         -0.4374156728        1.9591072713       -1.5743776780
 C          1.0697590916        1.6988504071       -1.4461622890
 C          1.4043045004        0.4743436007       -0.6512276135
 C          0.9642927534       -0.8254245675       -1.0278295110
 C          1.3616782232       -1.8109785380       -0.1862555823
 C          1.0765002437       -3.2688977332       -0.2591237050
 S          2.3158190296       -1.1595982185        1.1104380163
 C          2.1587495507        0.4550168270        0.4821771594
 C          2.8317519086        1.5854135207        1.1840495294
 H         -4.0784645966       -2.7358622558       -0.8724198152
 H         -2.4562459336       -2.1116477681       -0.5895881205
 H         -3.4845048227       -1.3721362896       -1.8203468360
 H         -3.9871099863       -1.3263778796        1.1936738371
 H         -5.0949087890       -0.6833802414       -0.0181488355
 H         -3.8419954122        1.1564195944        0.9017866062
 H         -3.3317178963        0.9102471705       -0.7691193554
 H         -1.2910808848       -0.2516916704        0.0026259341
 H         -1.8534205292       -0.1795953695        1.6653892723
 H         -0.1498030165        1.4937458182        1.2678086178
 H         -1.6820312918        2.2531247600        1.6863120633
 H         -0.5369277870        3.4893715431       -0.0740556169
 H         -2.1001835734        2.8893159887       -0.6067531151
 H         -0.5860446460        2.6540093773       -2.4057892803
 H         -0.9476785150        1.0313515470       -1.8323415455
 H          1.5523169808        2.5721058028       -1.0051062226
 H          1.4788444698        1.5672863390       -2.4531240679
 H          0.3776169670       -1.0132842584       -1.9110705168
 H          0.4979529561       -3.4894008408       -1.1535911562
 H          0.5105339450       -3.5944772841        0.6140527352
 H          2.0021577898       -3.8431977371       -0.2886124642
 H          3.2156447849        1.2533099404        2.1455296178
 H          2.1383418663        2.4091706782        1.3528156075
 H          3.6678158715        1.9623569308        0.5928746724
  39
        -45.47697269
 C         -6.0276737683       -0.7308470736        0.2264047246
 C         -5.4703843589       -0.0489500211       -1.0175704825
 C         -4.7315519979        1.2553064924       -0.7124153390
 C         -3.5012012763        1.1120102636        0.1855416660
 C         -2.3976122514        0.2557530149       -0.4323042151
 C         -1.1387792712        0.1819873673        0.4331760524
 C         -0.3491276971        1.4880538736        0.4675705570
 C          0.9425612777        1.3568571108        1.2844572991
 C          1.8892529235        0.3584934501        0.6917845729
 C          2.0417711675       -0.9605434867        1.2017113332
 C          2.9299890784       -1.7214103995        0.5167925232
 C          3.3366727879       -3.1307078107        0.7626532459
 S          3.6178245619       -0.8209910653       -0.8002583176
 C          2.6791266964        0.5868001073       -0.3939654970
 C          2.8075007592        1.8169492353       -1.2223044512
 H         -6.6347003220       -1.5889769353       -0.0539163763
 H         -6.6503689166       -0.0407824659        0.7921307204
 H         -5.2268513301       -1.0815543571        0.8720670431
 H         -6.2977702352        0.1822626440       -1.6933772576
 H         -4.8060097146       -0.7366152176       -1.5432875139
 H         -5.4304204728        1.9450172986       -0.2315967624
 H         -4.4225737190        1.7078204681       -1.6583810767
 H         -3.7932983353        0.6859877156        1.1469083372
 H         -3.1131615867        2.1143509151        0.3778613249
 H         -2.1359946885        0.6558774126       -1.4150435661
 H         -2.7719437764       -0.7592435686       -0.5771075841
 H         -0.4891983526       -0.6034621667        0.0395809564
 H         -1.4179316579       -0.0996275413        1.4516783007
 H         -0.9573073468        2.2801131250        0.9080526947
 H         -0.0997587242        1.7835947034       -0.5533801427
 H          0.6928741818        1.0481707870        2.3015382324
 H          1.4269348881        2.3354095249        1.3393746360
 H          1.4998185102       -1.3201499099        2.0593378055
 H          2.8063035461       -3.5230807051        1.6272923660
 H          4.4087190586       -3.1959800863        0.9480642100
 H          3.1098145290       -3.7545191766       -0.1019380059
 H          3.8195644949        1.9094835189       -1.6112391509
 H          2.5737607040        2.6995785538       -0.6300760455
 H          2.1235083212        1.7852676163       -2.0721590422
  39
        -45.47643682
 C         -5.5502789040        0.4401748211        1.5447699890
 C         -4.9886289290       -0.2663598499        0.3167015441
 C         -4.8838907703        0.6438445022       -0.9079214921
 C         -3.9535607728        1.8478744263       -0.7418618412
 C         -2.5091265395        1.5002940549       -0.3783931240
 C         -1.8171120096        0.6373901675       -1.4317750154
 C         -0.3144564968        0.4923027779       -1.1946659347
 C          0.0191165575       -0.2826653214        0.0853163299
 C          1.4926031817       -0.5256641668        0.1935872486
 C          2.1075438834       -1.7283828129       -0.2508271433
 C          3.4541956207       -1.7514265185       -0.1001692427
 C          4.4137329624       -2.8333387790       -0.4473458170
 S          4.0156019040       -0.2650857259        0.6026863536
 C          2.3965971929        0.3681444255        0.6815454941
 C          2.1704778973        1.7387683236        1.2166534141
 H         -5.6972138961       -0.2707499062        2.3550860271
 H         -6.5093764465        0.8992259971        1.3139274612
 H         -4.8732021147        1.2152612260        1.8943445651
 H         -5.6435741183       -1.1034920420        0.0613574137
 H         -4.0085367795       -0.6834907764        0.5537750362
 H         -5.8820975426        1.0189142823       -1.1492046567
 H         -4.5487898544        0.0472766470       -1.7587956847
 H         -4.3570798511        2.5094818744        0.0272895299
 H         -3.9541111102        2.4069363860       -1.6815015925
 H         -2.4907001175        0.9935922998        0.5867942100
 H         -1.9515072390        2.4346396509       -0.2688863972
 H         -1.9716248765        1.0917499950       -2.4139610499
 H         -2.2691058019       -0.3560068847       -1.4507956162
 H          0.1461489036        1.4812233249       -1.1444479953
 H          0.1285362757       -0.0348775956       -2.0434514640
 H         -0.5002453575       -1.2432659865        0.0684752720
 H         -0.3282937144        0.2773318476        0.9550726502
 H          1.5490872560       -2.5495119126       -0.6662420251
 H          3.8782571488       -3.6814028604       -0.8679523121
 H          4.9581017384       -3.1644603369        0.4369417728
 H          5.1443380441       -2.4822237917       -1.1760049251
 H          2.9070645447        1.9749536441        1.9818715266
 H          1.1744281138        1.8199933731        1.6474519113
 H          2.2597697660        2.4828238106        0.4232107764
