41
 energy: -49.703995865186 gnorm: 0.000066721765 xtb: 6.4.1 (23d549d)
C        -5.41325123160000   -0.40529680650000    2.02342832130000
C        -4.48157594160000    0.48246296640000    1.68645170390000
C        -3.43638098350000    0.25865572690000    0.72726451060000
C        -2.45860817700000    1.14275201560000    0.34908858000000
C        -1.57195478110000    0.64395882090000   -0.62245860740000
C        -0.40973345610000    1.43140498200000   -1.14156502720000
C         0.88272194380000    1.05126847510000   -0.40880777150000
C         2.07743498660000    1.84528871320000   -0.93022563640000
C         3.37142240840000    1.55364157320000   -0.16971363930000
C         3.88807879800000    0.13248968810000   -0.38964765050000
C         5.29746089230000   -0.08551534640000    0.16150259380000
C         5.37213028500000   -0.00866100170000    1.68496157130000
C         6.76747594260000   -0.34746979490000    2.19550013560000
C        -1.87041086890000   -0.65153855030000   -0.98931748000000
C        -1.18297140170000   -1.47673209770000   -1.94299201560000
C        -1.48416171610000   -2.74450707520000   -2.21303875760000
S        -3.26514273390000   -1.24251487690000   -0.12968597510000
H        -6.17355894270000   -0.18047598000000    2.75006024580000
H        -5.43897992610000   -1.38611525810000    1.57799128980000
H        -4.46947286270000    1.46425149580000    2.14367698800000
H        -2.38262737720000    2.13508056400000    0.75976910600000
H        -0.60668684950000    2.49563802120000   -0.99584450350000
H        -0.28223678110000    1.25826843530000   -2.21246195740000
H         1.05942640900000   -0.01768218460000   -0.53692484330000
H         0.75643425620000    1.24161121270000    0.65965096680000
H         1.85379614890000    2.91208465000000   -0.84544984830000
H         2.22400137970000    1.62385888780000   -1.99052241830000
H         3.20227918850000    1.72521896230000    0.89465221250000
H         4.13680894180000    2.25902992020000   -0.50341637960000
H         3.89937334540000   -0.07267819520000   -1.46335449520000
H         3.21111868510000   -0.58432269810000    0.07862518140000
H         5.97394843480000    0.65623394310000   -0.27034465160000
H         5.64646973060000   -1.07196674660000   -0.15480335010000
H         4.64932339390000   -0.70561671390000    2.11567725250000
H         5.10565492080000    0.99604951420000    2.01686865250000
H         7.04811227560000   -1.35652291270000    1.90071504960000
H         6.80513852220000   -0.28431970160000    3.28064731500000
H         7.50112284920000    0.34380640180000    1.78601927660000
H        -0.36180354060000   -0.99686851550000   -2.45912142900000
H        -2.29208312920000   -3.24968636600000   -1.71005683950000
H        -0.93307448770000   -3.31386049760000   -2.94038038490000
