  30
        -41.32314245
 C         -1.2528124108       -2.6275461407        1.5801535226
 C         -0.7999329382       -1.3978188819        1.3784874745
 C         -1.4353253936       -0.3995365731        0.5211291411
 C         -2.8166331181       -0.3798265207        0.3425792856
 C         -3.4240690094        0.5860727477       -0.4366666506
 C         -2.6571359017        1.5651007656       -1.0462600887
 C         -1.2849389638        1.5644227958       -0.8754345297
 C         -0.6611381910        0.5865922087       -0.1093184859
 C          0.8063774468        0.6243610400        0.0459471591
 C          1.3770898701        1.7571022407        0.6175939332
 C          2.7387153913        1.8374722816        0.8426445092
 C          3.5528082859        0.7695159145        0.5037971860
 C          2.9992170092       -0.3582003724       -0.0705057349
 C          1.6317349004       -0.4458041001       -0.3280437734
 C          1.1336682992       -1.6457828111       -1.0031586360
 C          0.1866823644       -1.6750284689       -1.9292942089
 H         -0.7437411754       -3.3164993016        2.2322744579
 H         -2.1359842708       -3.0018611489        1.0901466385
 H          0.1145241748       -1.0791827836        1.8633367955
 H         -3.4217499131       -1.1208263125        0.8431894572
 H         -4.4970890495        0.5824659786       -0.5613281496
 H         -3.1265596330        2.3279924766       -1.6499098240
 H         -0.6784195117        2.3201898592       -1.3550298429
 H          0.7324965122        2.5758374753        0.9054516697
 H          3.1614858030        2.7248238328        1.2902684891
 H          4.6162170627        0.8162802988        0.6872583788
 H          3.6354757674       -1.1880077731       -0.3451574751
 H          1.6525145009       -2.5607555222       -0.7425393105
 H         -0.3306124556       -0.7878668767       -2.2518815083
 H         -0.1024084644       -2.5957210330       -2.4070832382
