30
 energy: -41.323142449102 gnorm: 0.000040821850 xtb: 6.4.1 (23d549d)
C        -1.25281241080000   -2.62754614070000    1.58015352260000
C        -0.79993293820000   -1.39781888190000    1.37848747450000
C        -1.43532539360000   -0.39953657310000    0.52112914110000
C        -2.81663311810000   -0.37982652070000    0.34257928560000
C        -3.42406900940000    0.58607274770000   -0.43666665060000
C        -2.65713590170000    1.56510076560000   -1.04626008870000
C        -1.28493896380000    1.56442279580000   -0.87543452970000
C        -0.66113819100000    0.58659220870000   -0.10931848590000
C         0.80637744680000    0.62436104000000    0.04594715910000
C         1.37708987010000    1.75710224070000    0.61759393320000
C         2.73871539130000    1.83747228160000    0.84264450920000
C         3.55280828590000    0.76951591450000    0.50379718600000
C         2.99921700920000   -0.35820037240000   -0.07050573490000
C         1.63173490040000   -0.44580410010000   -0.32804377340000
C         1.13366829920000   -1.64578281110000   -1.00315863600000
C         0.18668236440000   -1.67502846890000   -1.92929420890000
H        -0.74374117540000   -3.31649930160000    2.23227445790000
H        -2.13598427080000   -3.00186114890000    1.09014663850000
H         0.11452417480000   -1.07918278360000    1.86333679550000
H        -3.42174991310000   -1.12082631250000    0.84318945720000
H        -4.49708904950000    0.58246597860000   -0.56132814960000
H        -3.12655963300000    2.32799247660000   -1.64990982400000
H        -0.67841951170000    2.32018985920000   -1.35502984290000
H         0.73249651220000    2.57583747530000    0.90545166970000
H         3.16148580300000    2.72482383280000    1.29026848910000
H         4.61621706270000    0.81628029880000    0.68725837880000
H         3.63547576740000   -1.18800777310000   -0.34515747510000
H         1.65251450090000   -2.56075552220000   -0.74253931050000
H        -0.33061245560000   -0.78786687670000   -2.25188150830000
H        -0.10240846440000   -2.59572103300000   -2.40708323820000
