  23
        -33.97864028
 C          3.7673787737        0.2119496385        0.1289064005
 C          2.7568035381        0.9894581689       -0.2499517801
 C          1.3585772650        0.6481583151       -0.1725963789
 S          0.2054944437        1.9661827918       -0.0893885567
 C         -1.1186960472        0.8467495453        0.0135279150
 C         -2.4639174894        1.1695707226        0.1064404207
 C         -3.3832290670        0.1424531609        0.1453067803
 C         -2.9654772758       -1.1862568732        0.0753642540
 C         -1.6295293269       -1.5062645247       -0.0142746507
 C         -0.6729060493       -0.4881483112       -0.0261616087
 C          0.7561990682       -0.5834852502       -0.1250989825
 C          1.4814344797       -1.8418331819       -0.2362664744
 C          1.2525236829       -2.9146953195        0.5085892119
 H          4.7875079575        0.5410403869        0.0312357529
 H          3.6118195458       -0.7585941571        0.5664629050
 H          2.9580038501        1.9849203572       -0.6265299848
 H         -2.7745827554        2.2023979087        0.1404801061
 H         -4.4362176626        0.3689871057        0.2182192142
 H         -3.7041606105       -1.9740009806        0.0875424339
 H         -1.3143948251       -2.5356015227       -0.0882506140
 H          2.2603322512       -1.8581796122       -0.9902131839
 H          0.5234013794       -2.9142605322        1.3014159260
 H          1.8102659990       -3.8254931701        0.3703371262
