23
 energy: -33.978640278525 gnorm: 0.000110936293 xtb: 6.4.1 (23d549d)
C         3.76737877370000    0.21194963850000    0.12890640050000
C         2.75680353810000    0.98945816890000   -0.24995178010000
C         1.35857726500000    0.64815831510000   -0.17259637890000
S         0.20549444370000    1.96618279180000   -0.08938855670000
C        -1.11869604720000    0.84674954530000    0.01352791500000
C        -2.46391748940000    1.16957072260000    0.10644042070000
C        -3.38322906700000    0.14245316090000    0.14530678030000
C        -2.96547727580000   -1.18625687320000    0.07536425400000
C        -1.62952932690000   -1.50626452470000   -0.01427465070000
C        -0.67290604930000   -0.48814831120000   -0.02616160870000
C         0.75619906820000   -0.58348525020000   -0.12509898250000
C         1.48143447970000   -1.84183318190000   -0.23626647440000
C         1.25252368290000   -2.91469531950000    0.50858921190000
H         4.78750795750000    0.54104038690000    0.03123575290000
H         3.61181954580000   -0.75859415710000    0.56646290500000
H         2.95800385010000    1.98492035720000   -0.62652998480000
H        -2.77458275540000    2.20239790870000    0.14048010610000
H        -4.43621766260000    0.36898710570000    0.21821921420000
H        -3.70416061050000   -1.97400098060000    0.08754243390000
H        -1.31439482510000   -2.53560152270000   -0.08825061400000
H         2.26033225120000   -1.85817961220000   -0.99021318390000
H         0.52340137940000   -2.91426053220000    1.30141592600000
H         1.81026599900000   -3.82549317010000    0.37033712620000
