  22
        -36.89085993
 C          4.0176571640        0.6993974131       -0.2891135914
 C          3.3444506172       -0.4335492615       -0.1281196936
 C          1.8991931521       -0.5722333829       -0.0033118054
 C          1.3456579795       -1.8386202852        0.2153861300
 C         -0.0142782456       -2.0103552440        0.3479151569
 C         -0.9091389045       -0.9441353456        0.2274241168
 C         -2.3388529502       -1.2311131890        0.4073798891
 C         -3.2899158258       -1.0364844367       -0.4913296128
 C         -0.3509802628        0.3222924537        0.0183357299
 N         -1.1474268438        1.5234870587       -0.0339449640
 O         -2.2291854413        1.4905983831       -0.5773159633
 O         -0.6622367499        2.5153496583        0.4725881088
 C          1.0227075665        0.5036187497       -0.0775532870
 H          5.0907387306        0.7021305688       -0.3707727377
 H          3.5396985443        1.6621628059       -0.3423542228
 H          3.8891828409       -1.3680628277       -0.0764563747
 H          1.9995659739       -2.6951956582        0.2925286988
 H         -0.4147244719       -2.9959673256        0.5347713484
 H         -2.5721337790       -1.7143399322        1.3494815548
 H         -3.0924773611       -0.5984527251       -1.4532586558
 H         -4.3103917850       -1.3126564045       -0.2885055150
 H          1.3896293034        1.5085470606       -0.2165361610
