  45
        -51.80649457
 C         -5.2399727901        1.2499213525       -2.3909344671
 C         -4.6417020336        2.6276654056       -2.6498641163
 C         -4.4730972690        3.4624643232       -1.3790263095
 C         -3.5300654809        2.8649169588       -0.3335652588
 C         -2.0897873625        2.7252839003       -0.8206199138
 C         -1.1619631190        2.2348948011        0.2884611376
 C          0.2766327094        2.0718299519       -0.1959072525
 C          1.1849793927        1.5201257988        0.9003004513
 C          2.6200256178        1.2814529088        0.4318116266
 C          2.7627116762        0.0725511630       -0.5030280820
 C          2.3771638633       -1.2028812298        0.1807696511
 C          3.1832207760       -1.7857639373        1.1983335271
 C          2.6726177476       -2.9233975783        1.7281485626
 C          3.2345414178       -3.7902065575        2.7980349889
 S          1.1586904269       -3.3209158252        0.9749297103
 C          1.2450428627       -1.9213407592       -0.0566487782
 C          0.1411344545       -1.6661925525       -1.0246166804
 H         -5.4382331234        0.7419279023       -3.3322619442
 H         -6.1771546840        1.3384793349       -1.8453353371
 H         -4.5608282462        0.6307292257       -1.8108144212
 H         -5.2997122610        3.1755722472       -3.3291750604
 H         -3.6783860254        2.5183760935       -3.1507131788
 H         -5.4556278689        3.5987753059       -0.9197086492
 H         -4.1020420621        4.4513617569       -1.6606638516
 H         -3.9014922605        1.8891108365       -0.0161406501
 H         -3.5401643437        3.5156316264        0.5449082240
 H         -1.7364952165        3.6923612241       -1.1868331829
 H         -2.0477531896        2.0196118941       -1.6524188376
 H         -1.5267196774        1.2747565659        0.6635699730
 H         -1.1862005668        2.9405092180        1.1223958232
 H          0.6585434258        3.0401144190       -0.5289941398
 H          0.2858822382        1.4011881309       -1.0564434241
 H          0.7741344077        0.5810189179        1.2773657654
 H          1.1989270805        2.2291308314        1.7318425958
 H          3.2519484696        1.1179190990        1.3075368381
 H          2.9866727216        2.1730352825       -0.0823711311
 H          3.8073980712        0.0008119388       -0.8181969713
 H          2.1539587948        0.2203182958       -1.3946272104
 H          4.1202434145       -1.3607370710        1.5145096685
 H          4.1853239801       -3.3873137321        3.1394000307
 H          3.3937021882       -4.8036075006        2.4296749276
 H          2.5522209967       -3.8475700761        3.6461666671
 H         -0.4244975864       -2.5791434939       -1.1960152067
 H          0.5368818300       -1.3181264233       -1.9777639939
 H         -0.5443721062       -0.9089304096       -0.6419548284
