  31
        -45.39489105
 C         -0.6843286907        3.8349013689        0.2086023757
 C         -1.7061702095        2.9881280039        0.2190778385
 C         -1.6256430323        1.5316016710        0.1802427197
 C         -2.7841965240        0.7968313455       -0.0589704027
 C         -2.7741582480       -0.5958540386       -0.1064381451
 C         -4.0278372222       -1.2999939723       -0.3531179865
 C         -4.2065707928       -2.6146568925       -0.3887286476
 C         -1.5631143663       -1.2580289318        0.0795260935
 C         -0.3998841069       -0.5378632281        0.3161304626
 O          0.7375029034       -1.2654787641        0.5607747307
 C          1.9626532893       -0.7836819243        0.1825815228
 C          3.0560941141       -1.1651876918        0.9544105718
 C          4.3286579265       -0.7667835691        0.5928774043
 C          4.5232393251        0.0138172042       -0.5346183250
 C          3.4360463772        0.3822823620       -1.3083960397
 C          2.1579592958       -0.0145951263       -0.9600842958
 C         -0.4281760349        0.8483710702        0.3807250034
 H         -0.8397134511        4.8998903243        0.2324782431
 H          0.3416655374        3.5106838882        0.1688159502
 H         -2.7149887379        3.3822001598        0.2378401783
 H         -3.7167700829        1.3221508367       -0.2114061336
 H         -4.8802044926       -0.6513643477       -0.5158378481
 H         -3.4063654768       -3.3169105930       -0.2314621685
 H         -5.1765513748       -3.0418252140       -0.5775023901
 H         -1.5001346350       -2.3332625210        0.0508972901
 H          2.8871069845       -1.7745211109        1.8285825228
 H          5.1723020760       -1.0645487346        1.1976192175
 H          5.5176700464        0.3286762386       -0.8123370462
 H          3.5808157552        0.9799359101       -2.1963617108
 H          1.3130588126        0.2613868876       -1.5744896824
 H          0.4789922212        1.3872760744        0.6060179794
