  22
        -29.87051888
 C          3.6263381733       -0.0206030257        0.4280084180
 C          2.5392308595       -0.4536779781       -0.1965941915
 C          1.2104983279        0.1482223687       -0.0811524613
 C          1.0745259506        1.5242573802        0.0698145431
 C         -0.1722269278        2.1159729444        0.1387572084
 C         -1.3060455030        1.3326291316        0.0381671375
 C         -1.2161036037       -0.0470983206       -0.1133831567
 C         -2.4280654876       -0.8534417251       -0.2624384617
 C         -3.5858256282       -0.6019185848        0.3340250143
 C          0.0544507068       -0.6522121680       -0.1499762181
 N          0.1664937926       -2.0255452000       -0.2658065696
 H          4.5860589355       -0.4875605742        0.2846278441
 H          3.5980491218        0.8093390674        1.1139937080
 H          2.6157383075       -1.3048212578       -0.8633134382
 H          1.9640261002        2.1348904291        0.1080870381
 H         -0.2598636879        3.1863301802        0.2496187103
 H         -2.2824895453        1.7929894242        0.0516210766
 H         -2.3505227773       -1.7035455588       -0.9303827765
 H         -3.7078518735        0.2195375512        1.0199719757
 H         -4.4546505679       -1.2157248077        0.1665109137
 H         -0.6410074957       -2.5580238469        0.0119170167
 H          1.0405444727       -2.4229390804        0.0355683765
