  25
        -42.10946483
 C         -4.3084724605       -1.5050373465        0.1951286727
 C         -3.0657555856       -1.9555539564        0.0571478208
 C         -1.9086090479       -1.1017333528       -0.0030350827
 N         -0.6786004569       -1.5027535861       -0.1311234754
 C          0.0835506060       -0.3738086817       -0.1415670023
 C          1.5456748094       -0.4599013977       -0.2742229398
 O          2.1626643026       -1.4830082134       -0.4066916636
 O          2.1183796753        0.7586438426       -0.2399287830
 C          3.5432718899        0.7913645367       -0.3440817730
 C          4.2089380781        0.5125901253        0.9958407637
 C         -0.7590030185        0.7239184375       -0.0129029827
 C         -0.5091576179        2.1381575353        0.0324456580
 C         -1.4732728342        3.0476539380        0.1564996075
 O         -2.0192657130        0.2458576440        0.0735905210
 H         -5.1483578071       -2.1754474799        0.2362512186
 H         -4.5193432544       -0.4514677044        0.2709247973
 H         -2.8347752268       -3.0068682952       -0.0198681675
 H          3.7763783788        1.7972801760       -0.6999565640
 H          3.8605559159        0.0497658857       -1.0843734403
 H          3.8574777530        1.2171953344        1.7460066060
 H          5.2860410004        0.6088368303        0.8936321987
 H          3.9746032069       -0.4977203228        1.3214494070
 H          0.5306168273        2.4143317457       -0.0430883674
 H         -2.5093990007        2.7630564160        0.2310284778
 H         -1.2525147191        4.0998160418        0.1864257124
