  20
        -43.34194632
 C          1.5739882756        3.0673615383        0.0432590944
 C          1.2182841714        1.8978030053        0.5559872464
 C         -0.0316531377        1.2008887939        0.2605285955
 C         -1.2002018145        1.9247729432        0.0247053420
 C         -2.4147597458        1.3004853509       -0.1726347402
 C         -2.4813300281       -0.0812819036       -0.1198572773
 F         -3.6597633121       -0.7014412225       -0.2906337175
 C         -1.3334753264       -0.8221248427        0.1120169537
 F         -1.4034720424       -2.1648456604        0.1527734192
 C         -0.0952293748       -0.2028833873        0.2852350292
 C          1.0649166011       -1.0709445207        0.4826504797
 C          2.2500617110       -0.9195881328       -0.0851984483
 F          2.6146288020        0.0279946436       -0.9369561054
 F          3.2692392671       -1.7472031037        0.1114967836
 H          2.5025619679        3.5385923989        0.3130533340
 H          0.9702456355        3.5819874820       -0.6847147426
 H          1.8774640539        1.3939623899        1.2513264097
 H         -1.1537561147        3.0019303423        0.0208122576
 H         -3.3162411426        1.8633506666       -0.3531896420
 H          0.9234946640       -1.9561014696        1.0857816896
  20
        -43.34050508
 C          2.0151331224        2.6824556230        0.3603502463
 C          0.7565186703        2.6761325124        0.7789483009
 C         -0.2551540898        1.6692075873        0.4628677632
 C         -1.5715216058        2.0972667376        0.2932963714
 C         -2.5815097212        1.2216694860       -0.0490458009
 C         -2.2833316406       -0.1210871205       -0.1971310462
 F         -3.2579184168       -0.9902794744       -0.5055397801
 C         -0.9863438653       -0.5756571276       -0.0059592637
 F         -0.7398192909       -1.8928807689       -0.0814817894
 C          0.0479897331        0.3043972028        0.3139801977
 C          1.3906358096       -0.2124785124        0.5767829465
 C          2.0099675710       -1.1381591828       -0.1383353687
 F          1.5919075816       -1.6887141649       -1.2645325132
 F          3.2206026458       -1.5993459279        0.1584173018
 H          2.6850956825        3.4834927626        0.6216840999
 H          2.4153466664        1.9158854319       -0.2801993001
 H          0.3898195457        3.5071890324        1.3683885806
 H         -1.7995132681        3.1448789912        0.4173208092
 H         -3.5963048846        1.5556150028       -0.1922521873
 H          1.9177119620        0.1876651868        1.4299596343
  20
        -43.34042567
 C          1.9550294088        2.1440098972       -0.9837181862
 C          1.0976811063        2.1408726656        0.0252808126
 C         -0.1018289438        1.2995983095        0.0969833385
 C         -1.3041332019        1.9056616661        0.4571586639
 C         -2.4994414013        1.2148968326        0.4455314383
 C         -2.5029853829       -0.1165054318        0.0691303766
 F         -3.6577029532       -0.8006031638        0.0380705340
 C         -1.3137216788       -0.7466255921       -0.2635437915
 F         -1.3225599319       -2.0497313247       -0.5970984094
 C         -0.0977453180       -0.0630075083       -0.2374681984
 C          1.1092908668       -0.8397086949       -0.5311315152
 C          2.2281185953       -0.7978295720        0.1709392189
 F          2.4731495367       -0.0331205661        1.2255878080
 F          3.2954720669       -1.5408904032       -0.0926243260
 H          2.7952593170        2.8156919114       -1.0054626578
 H          1.8449729357        1.4855515566       -1.8295608796
 H          1.2146852799        2.8434246840        0.8394850989
 H         -1.2987631327        2.9494728035        0.7310825328
 H         -3.4289485008        1.6886958636        0.7164876293
 H          1.0505936959       -1.5719241371       -1.3227975750
  20
        -43.33699625
 C          1.5953868811        2.9017268375        1.3947558320
 C          0.8985750370        2.7173769634        0.2863080328
 C         -0.1548438206        1.7002499429        0.1179409575
 C         -1.4459287874        2.1358264673       -0.1613569132
 C         -2.4926694425        1.2463098837       -0.3088894060
 C         -2.2447401614       -0.1075355169       -0.1774032931
 F         -3.2544259698       -0.9843631998       -0.2919939520
 C         -0.9582318585       -0.5643704787        0.0720392165
 F         -0.7522465694       -1.8814246018        0.2274254153
 C          0.1084819816        0.3249256635        0.2095190445
 C          1.4687099606       -0.1746573412        0.4185975978
 C          1.9995710930       -1.2105934181       -0.2117089857
 F          1.4440583579       -1.9445333082       -1.1585565902
 F          3.2424557670       -1.6285685522       -0.0007671396
 H          2.3289073473        3.6849100466        1.4774022681
 H          1.4450896877        2.2928515932        2.2712696150
 H          1.0375415078        3.3766165357       -0.5613494961
 H         -1.6314249342        3.1952814058       -0.2500847298
 H         -3.4956892025        1.5822149713       -0.5159720869
 H          2.1072708053        0.3525301141        1.1071916344
