  20
        -43.34194632
 C          1.5739882756        3.0673615383        0.0432590944
 C          1.2182841714        1.8978030053        0.5559872464
 C         -0.0316531377        1.2008887939        0.2605285955
 C         -1.2002018145        1.9247729432        0.0247053420
 C         -2.4147597458        1.3004853509       -0.1726347402
 C         -2.4813300281       -0.0812819036       -0.1198572773
 F         -3.6597633121       -0.7014412225       -0.2906337175
 C         -1.3334753264       -0.8221248427        0.1120169537
 F         -1.4034720424       -2.1648456604        0.1527734192
 C         -0.0952293748       -0.2028833873        0.2852350292
 C          1.0649166011       -1.0709445207        0.4826504797
 C          2.2500617110       -0.9195881328       -0.0851984483
 F          2.6146288020        0.0279946436       -0.9369561054
 F          3.2692392671       -1.7472031037        0.1114967836
 H          2.5025619679        3.5385923989        0.3130533340
 H          0.9702456355        3.5819874820       -0.6847147426
 H          1.8774640539        1.3939623899        1.2513264097
 H         -1.1537561147        3.0019303423        0.0208122576
 H         -3.3162411426        1.8633506666       -0.3531896420
 H          0.9234946640       -1.9561014696        1.0857816896
