46
 energy: -77.305343240064 gnorm: 0.000040308073 xtb: 6.4.1 (23d549d)
C         1.79213126810000   -6.25171418830000    0.52069588090000
O         2.38651867460000   -5.23131285150000   -0.24277520580000
C         1.89877189270000   -3.96353378330000   -0.12575463140000
C         2.52115431890000   -2.99535160950000   -0.91635007110000
C         2.10401363760000   -1.68438598870000   -0.88212453650000
C         1.05508924460000   -1.29716244610000   -0.04697260540000
N         0.63972674710000    0.04342415130000   -0.00165110250000
C        -0.70709352270000    0.36425077790000    0.08386849750000
C        -1.12801266700000    1.52175975130000    0.74676824130000
C        -2.46541501720000    1.83327095550000    0.82783966690000
C        -3.44211582300000    1.00968734590000    0.25873507920000
C        -4.83246760900000    1.40014286670000    0.38702400620000
C        -5.91415421260000    0.76843954420000   -0.04716660010000
F        -5.98411379170000   -0.38370035770000   -0.70872610970000
F        -7.15246162740000    1.23341413220000    0.13604812820000
C        -3.01697671980000   -0.14573734480000   -0.40385764860000
C        -1.67995240480000   -0.46062373510000   -0.49040414150000
C         1.61371982820000    1.05384729660000   -0.04543107590000
C         2.81295284870000    0.90875651090000    0.64318316910000
C         3.78692629190000    1.88989332780000    0.59226681010000
C         3.57321617080000    3.04810054200000   -0.14641515090000
O         4.45733922750000    4.07943007070000   -0.26314150920000
C         5.68965371150000    3.98551700540000    0.40738439640000
C         2.36896932160000    3.19646254250000   -0.83759486710000
C         1.40671708540000    2.21369437060000   -0.79391255310000
C         0.44360279650000   -2.26091739470000    0.74755840880000
C         0.85272631660000   -3.58179777220000    0.70674233770000
H         2.32752211100000   -7.16371126730000    0.26131622250000
H         0.73206822500000   -6.37320268230000    0.27489217090000
H         1.89702721240000   -6.06496050410000    1.59459129760000
H         3.32985671660000   -3.30260193550000   -1.56006128400000
H         2.58800433330000   -0.94643125940000   -1.50412494020000
H        -0.39398643570000    2.16796403390000    1.20445570780000
H        -2.76794127120000    2.72870249720000    1.35119883700000
H        -5.02568691190000    2.32814381040000    0.90620518420000
H        -3.73549244580000   -0.80182084220000   -0.86695931790000
H        -1.37237822960000   -1.35110093360000   -1.01791186220000
H         2.98709389520000    0.01517795070000    1.22416993130000
H         4.70377974880000    1.73883027330000    1.13963567280000
H         6.22443547510000    4.90413244430000    0.17111784140000
H         6.27401761540000    3.12778592010000    0.05830218850000
H         5.55418028430000    3.91565396100000    1.49175910080000
H         2.21675564520000    4.09503098180000   -1.41395061260000
H         0.48531031110000    2.33536805570000   -1.34348733570000
H        -0.36289274660000   -1.97425032530000    1.40626884950000
H         0.35111006330000   -4.29909846200000    1.33675785600000
