  14
        -20.44344060
 C         -2.7008451228        0.5885539722        0.0000144447
 C         -1.2777132351        0.1499783926        0.0000008841
 C         -0.8324750149       -1.1351740895       -0.0000360501
 S          0.8887335669       -1.1874990545        0.0000149081
 C          0.8857940280        0.5703562987       -0.0000193829
 C          2.1535911120        1.3373990267       -0.0000048187
 N         -0.2876311433        1.0838723047        0.0000048924
 H         -3.3645340420       -0.2714527567        0.0005347648
 H         -2.8986226302        1.1978774170       -0.8800245630
 H         -2.8983318813        1.1987543413        0.8795057155
 H         -1.4025393518       -2.0417022401       -0.0000419211
 H          3.0060327811        0.6637726688       -0.0002273812
 H          2.1991909308        1.9774985058        0.8800799105
 H          2.1989985627        1.9778614703       -0.8798333820
