  21
        -34.38708438
 C          2.8030759727       -2.2095412865        0.2608391988
 C          2.5414342805       -0.9918431694       -0.1964034069
 C          1.2512076879       -0.3169431684       -0.0902563563
 C          0.0559770920       -1.0180848703       -0.0839681247
 C         -1.1805938741       -0.3686595406       -0.0196621393
 C         -2.4701697860       -1.0402489558       -0.0143674291
 C         -2.6710539095       -2.3527339114       -0.0336164855
 C         -1.1002854706        1.0245498263        0.0261384204
 F         -2.2293705678        1.7536854477        0.0718442338
 N          0.0028708433        1.7282832340        0.0371027718
 C          1.1717393228        1.0945204797       -0.0142447375
 N          2.2709286963        1.8966979394       -0.0234445404
 H          3.7722859123       -2.6613479675        0.1388325793
 H          2.0670785344       -2.7951619464        0.7851482439
 H          3.3217873438       -0.4326766097       -0.6976667878
 H          0.0837570563       -2.0934867397       -0.1581082077
 H         -3.3224109219       -0.3738153351        0.0112946973
 H         -1.8664668618       -3.0677451609       -0.0566963882
 H         -3.6658130154       -2.7627409909       -0.0266083635
 H          2.0938503286        2.8682969482        0.1699281233
 H          3.1570223592        1.5206249966        0.2625708478
