  23
        -31.18233242
 C         -1.9388692493       -2.1622558419       -0.5433517563
 C         -1.8698885354       -0.9998003108        0.0920496676
 C         -0.7443401135       -0.0876745939        0.0770202617
 C         -0.8664925258        1.3217690107        0.1261062210
 C         -2.1102713614        2.1251895168        0.2600066970
 N          0.3177216610        1.8960413453        0.0127746474
 N          1.2076149515        0.9154134761       -0.1087220603
 C          2.6021474709        1.2333041536       -0.2071812072
 C          0.6284290926       -0.3137573162       -0.0682611986
 C          1.4389210701       -1.5109317956       -0.1102744648
 C          1.1383583792       -2.6588673033        0.4846538237
 H         -2.8274116899       -2.7695238500       -0.5099124064
 H         -1.1157363562       -2.5450954421       -1.1224302353
 H         -2.7343313370       -0.6339852239        0.6337978451
 H         -2.6325915383        1.8699833979        1.1816189563
 H         -2.7809536201        1.9319753799       -0.5764918034
 H         -1.8547220094        3.1807769479        0.2760660149
 H          2.6897055642        2.3159756857       -0.1438935490
 H          3.0140028213        0.8954778166       -1.1611212640
 H          3.1649673670        0.7746702250        0.6084008559
 H          2.3753914096       -1.4148831447       -0.6471462821
 H          0.2306988918       -2.7833222629        1.0490509462
 H          1.7944044518       -3.5101408175        0.4254269801
