  28
        -47.55541852
 C          2.4061564439       -3.6412293746       -0.0638203034
 C          1.1922722412       -3.1018891508       -0.0616156135
 C          0.8317199117       -1.6913778254       -0.0129071262
 C         -0.5119314169       -1.3436498859       -0.0547059231
 C         -0.9730253816       -0.0297570332        0.0011570509
 C         -2.4418948432        0.1024881179       -0.0212216864
 O         -3.1979805843       -0.8360580960       -0.1034830221
 O         -2.9122136212        1.3714371209        0.0688450613
 C         -4.3267080706        1.4985733890        0.0485231620
 C         -0.0467881397        1.0340319732        0.0803236798
 N         -0.4292911608        2.3332924758        0.1303016435
 C          1.3321703670        0.7129666053        0.0980676459
 C          2.3831431743        1.7352967997        0.1693519796
 C          2.4199946025        2.8633365429       -0.5278462786
 C          1.7247555419       -0.6174888535        0.0753555702
 F          3.0535659419       -0.8511579042        0.1236845146
 H          2.5282705365       -4.7105436019       -0.1048351418
 H          3.3126534458       -3.0655127233       -0.0279360541
 H          0.3304367173       -3.7569278129       -0.1033567641
 H         -1.2590386835       -2.1204578242       -0.1240028543
 H         -4.5373300904        2.5639335902        0.1010748307
 H         -4.7665569274        0.9763299920        0.9004243200
 H         -4.7311908574        1.0712008392       -0.8707067157
 H         -1.4015764640        2.5321210914        0.2892479785
 H          0.2589495327        3.0092502865        0.4184230186
 H          3.2115635044        1.4862796004        0.8213328280
 H          1.6635705148        3.1229164166       -1.2499052922
 H          3.2444652710        3.5494292591       -0.4324374943
