24
 energy: -40.178708445068 gnorm: 0.000066636705 xtb: 6.4.1 (23d549d)
C        -5.69782587810000    0.58623528440000    0.00766215140000
C        -4.81013593870000   -0.40221027790000   -0.00600618670000
C        -3.36083269980000   -0.27185466710000   -0.00292413720000
C        -2.70083732710000    0.95943524440000    0.00656760340000
C        -1.32590531150000    1.02353148370000    0.00838855510000
C        -0.53856906080000   -0.13458412310000    0.00188992970000
C         0.90144809060000    0.00652302210000    0.00443508850000
C         1.79920236610000   -0.99401825890000    0.01686521480000
C         3.23358078600000   -0.85141364510000    0.01923828690000
C         3.94813916590000    0.26888809620000   -0.00128296790000
F         3.50106709900000    1.51966607480000   -0.02920716600000
F         5.28061607030000    0.28549154650000    0.00294531380000
C        -1.20062799830000   -1.36676396080000   -0.00802592550000
C        -2.57596245450000   -1.42901678110000   -0.01062401000000
H        -6.75566803920000    0.38698324490000    0.00403547580000
H        -5.41572050180000    1.62487986390000    0.02326053700000
H        -5.16806798190000   -1.42490960370000   -0.02068190560000
H        -3.27065710660000    1.87559659790000    0.01182480330000
H        -0.83792420730000    1.98805669150000    0.01542522580000
H         1.25040470240000    1.02957325080000   -0.00288955210000
H         1.46304552330000   -2.02039288750000    0.02775857800000
H         3.81747321280000   -1.75996220020000    0.03919895430000
H        -0.63478520070000   -2.28557791480000   -0.01527771150000
H        -3.06344201400000   -2.39417146230000   -0.01882671970000
