  25
        -45.72853642
 C         -3.5275383944       -2.6557312563       -0.0130829319
 C         -2.2047498588       -2.5387297577        0.0033113589
 C         -1.4373827086       -1.3019123205       -0.0229936090
 C         -2.0228668171       -0.0363848416       -0.0840978078
 C         -1.2767188105        1.1282850261       -0.1107442677
 C         -1.9437578836        2.4275964472       -0.2241643822
 C         -3.1024069169        2.7329562499        0.3431858162
 C          0.1352003708        1.0579237620       -0.0612919163
 N          0.8887972299        2.1945485429       -0.0903267611
 C          0.7238713808       -0.2168226182       -0.0154540914
 C          2.2155139302       -0.3339716368        0.0265729017
 F          2.7580728655        0.2859277932        1.1053513606
 F          2.6551450441       -1.5953214813        0.0738333451
 F          2.8227421594        0.2325951419       -1.0399559049
 C         -0.0477664015       -1.3680585733        0.0027762707
 H         -4.0018060870       -3.6214830258        0.0103409843
 H         -4.1898424720       -1.8081560983       -0.0513020172
 H         -1.6008012177       -3.4368440924        0.0419940079
 H         -3.0962533814        0.0491176247       -0.1378435686
 H         -1.4409223157        3.1649443239       -0.8382324204
 H         -3.6274113693        2.0383177137        0.9770730624
 H         -3.5624220091        3.6964931203        0.2065985736
 H          0.4356251374        3.0637007614        0.1277667125
 H          1.8709421498        2.1490441246        0.1138556280
 H          0.4425968981       -2.3291517175        0.0394435610
