  25
        -42.11277960
 C         -2.8488622835       -3.0517450243       -0.0415689857
 C         -3.0159639642       -1.7347304677       -0.0992694312
 C         -1.9162514906       -0.8078691671       -0.0324780223
 N         -0.6510049526       -1.0876428975        0.0850167008
 C         -0.0103923961        0.1138074701        0.1048044439
 C          1.4450474888        0.2634059828        0.2258856092
 O          2.0085105006        1.3350454229        0.2423307227
 O          2.0584384729       -0.9121370899        0.3264559985
 C          3.4803057694       -0.8910373340        0.4353617958
 C          4.1408588389       -0.7700393941       -0.9310894898
 C         -0.9572728301        1.1235900580       -0.0074734316
 C         -0.8108380517        2.5512416007       -0.0375653288
 C         -1.8341408412        3.3950126441       -0.1485459723
 O         -2.1634665820        0.5235455108       -0.0937365336
 H         -3.6824311611       -3.7295856858       -0.0925865532
 H         -1.8632708996       -3.4712734954        0.0589858737
 H         -3.9905051009       -1.2783234002       -0.1995889404
 H          3.7404523105       -1.8362443488        0.9159778831
 H          3.7769446141       -0.0512686202        1.0732473655
 H          3.8032012521       -1.5725206820       -1.5823480250
 H          5.2200093464       -0.8291417561       -0.8215104022
 H          3.8843088602        0.1847251902       -1.3835932923
 H          0.2121435564        2.8887755197        0.0388506488
 H         -2.8495028788        3.0423514014       -0.2232234248
 H         -1.6836600241        4.4596789321       -0.1675867774
  25
        -42.11104813
 C         -3.9561742180       -2.2133922747       -0.1375945603
 C         -2.6353633386       -2.3055958850       -0.0228247964
 C         -1.7553829677       -1.1667379410        0.0059427381
 N         -0.4616644015       -1.2101433662        0.1172240979
 C         -0.0359951599        0.0857414553        0.1010853480
 C          1.3984032897        0.3886797379        0.2096487377
 O          1.8834200630        1.4977752643        0.1901011163
 O          2.1069901023       -0.7283726536        0.3456646157
 C          3.5221764925       -0.5890536658        0.4448617798
 C          4.1659110502       -0.4591839053       -0.9289055269
 C         -1.1505281025        0.9103353388       -0.0271374769
 C         -1.4140101607        2.3224360812       -0.1065022810
 C         -0.5075784007        3.2950433768       -0.0730235752
 O         -2.2298076521        0.0963380394       -0.0850683952
 H         -4.5818368702       -3.0879652918       -0.1552654162
 H         -4.4476127980       -1.2582411032       -0.2170727446
 H         -2.1249691211       -3.2530600343        0.0580935538
 H          3.8591697764       -1.4949548038        0.9526063394
 H          3.7536772886        0.2911447552        1.0547112900
 H          3.8903480448       -1.3063508077       -1.5521135329
 H          5.2467656164       -0.4290710586       -0.8245359067
 H          3.8324992412        0.4571441825       -1.4098764926
 H         -2.4692526055        2.5473994463       -0.2018295980
 H          0.5428021626        3.0850251475        0.0208133543
 H         -0.8081061961        4.3264623765       -0.1399920444
  25
        -42.11096249
 C         -2.6667356263       -3.2372612924       -0.0184930273
 C         -2.9617541267       -1.9437877530       -0.0912255018
 C         -1.9563513535       -0.9143327296       -0.0361376783
 N         -0.6712811004       -1.0663104662        0.0811922087
 C         -0.1413529419        0.1903533417        0.0882710388
 C          1.3123960229        0.3712838248        0.2091515474
 O          1.8883645977        1.4360394886        0.2113193496
 O          1.9252911822       -0.8032783284        0.3296164260
 C          3.3464189578       -0.7825271112        0.4393113957
 C          4.0087682283       -0.6800425791       -0.9279372685
 C         -1.1823173212        1.1074101466       -0.0320272078
 C         -1.3275093111        2.5374481581       -0.0883602012
 C         -0.3441353232        3.4310399056       -0.0316258503
 O         -2.3242617642        0.3850159388       -0.1092203054
 H         -3.4297903155       -3.9941644972       -0.0605408218
 H         -1.6446406330       -3.5566260773        0.0857792811
 H         -3.9760269444       -1.5853126818       -0.1953636654
 H          3.6045370854       -1.7222859300        0.9316003380
 H          3.6448806171        0.0641532495        1.0672619990
 H          3.6712393142       -1.4910207140       -1.5685966661
 H          5.0877682432       -0.7382634010       -0.8164135626
 H          3.7532353912        0.2685677257       -1.3937564394
 H         -2.3597577311        2.8505574707       -0.1864525981
 H          0.6845430101        3.1334887390        0.0652628764
 H         -0.5580296922        4.4847522577       -0.0819413367
  25
        -42.10955537
 C         -3.4210466342       -2.8288317678        0.0342074149
 C         -3.3373577755       -1.5057180849       -0.0559250790
 C         -2.0803305829       -0.8051886226       -0.0093998025
 N         -0.8930657257       -1.3191282227        0.1212162333
 C         -0.0291124438       -0.2663740110        0.1148963189
 C          1.4196369088       -0.4871095459        0.2373000559
 O          1.9495688074       -1.5660107904        0.2607969455
 O          2.0898991384        0.6771974606        0.3308607010
 C          3.5121324512        0.5850705242        0.4321967768
 C          4.1595242173        0.4375921458       -0.9372984951
 C         -0.7631623178        0.9049769838       -0.0290776637
 C         -0.3785177065        2.2868405212       -0.1087621434
 C         -1.2503026724        3.2824433285       -0.2532720856
 O         -2.0633220758        0.5454653377       -0.1072878754
 H         -4.3673924297       -3.3388383662       -0.0019524253
 H         -2.5309972855       -3.4227808649        0.1465202704
 H         -4.2077200276       -0.8750384444       -0.1695594182
 H          3.7667657446       -0.2715203128        1.0646196698
 H          3.8213916918        1.5129818251        0.9182181771
 H          3.8459272882       -0.4970672527       -1.3953953286
 H          5.2404106502        0.4321588627       -0.8301963047
 H          3.8695468878        1.2631831638       -1.5831606305
 H          0.6833770526        2.4627745245       -0.0407342267
 H         -2.3095839387        3.0982432148       -0.3174712416
 H         -0.9280585600        4.3069392363       -0.3105057801
  25
        -42.10946483
 C         -4.3084724605       -1.5050373465        0.1951286727
 C         -3.0657555856       -1.9555539564        0.0571478208
 C         -1.9086090479       -1.1017333528       -0.0030350827
 N         -0.6786004569       -1.5027535861       -0.1311234754
 C          0.0835506060       -0.3738086817       -0.1415670023
 C          1.5456748094       -0.4599013977       -0.2742229398
 O          2.1626643026       -1.4830082134       -0.4066916636
 O          2.1183796753        0.7586438426       -0.2399287830
 C          3.5432718899        0.7913645367       -0.3440817730
 C          4.2089380781        0.5125901253        0.9958407637
 C         -0.7590030185        0.7239184375       -0.0129029827
 C         -0.5091576179        2.1381575353        0.0324456580
 C         -1.4732728342        3.0476539380        0.1564996075
 O         -2.0192657130        0.2458576440        0.0735905210
 H         -5.1483578071       -2.1754474799        0.2362512186
 H         -4.5193432544       -0.4514677044        0.2709247973
 H         -2.8347752268       -3.0068682952       -0.0198681675
 H          3.7763783788        1.7972801760       -0.6999565640
 H          3.8605559159        0.0497658857       -1.0843734403
 H          3.8574777530        1.2171953344        1.7460066060
 H          5.2860410004        0.6088368303        0.8936321987
 H          3.9746032069       -0.4977203228        1.3214494070
 H          0.5306168273        2.4143317457       -0.0430883674
 H         -2.5093990007        2.7630564160        0.2310284778
 H         -1.2525147191        4.0998160418        0.1864257124
  25
        -42.10626070
 C         -4.3377808340       -1.8087201801       -0.0165910870
 C         -3.0897200403       -2.0925377087        0.3422003329
 C         -1.9919932673       -1.1717460711        0.2100624301
 N         -0.7565008034       -1.4156480322        0.5527096350
 C         -0.0600228015       -0.2886636353        0.2519561513
 C          1.4049159502       -0.2113388863        0.4738107030
 O          1.9513802593       -0.3690222261        1.5313929783
 O          2.0362386929        0.0365637612       -0.6797116947
 C          3.4643826882        0.1010750818       -0.6328587683
 C          3.9543154254        1.4779346218       -0.2080851367
 C         -0.9345210536        0.6438634585       -0.2775593230
 C         -0.8024011859        2.0033873630       -0.7287081072
 C          0.2494414989        2.7813002014       -0.4964407884
 O         -2.1592864437        0.0651660726       -0.3009194634
 H         -5.1324861885       -2.5239043530        0.0995304744
 H         -4.5977504787       -0.8512471054       -0.4358607197
 H         -2.8104672511       -3.0453732784        0.7650433709
 H          3.7888053887       -0.1360684280       -1.6479035671
 H          3.8280359273       -0.6603240964        0.0648194180
 H          3.5611392977        2.2415174533       -0.8753201272
 H          5.0397463638        1.5017014238       -0.2436731644
 H          3.6344272087        1.6901963868        0.8094478899
 H         -1.6617364382        2.3755904536       -1.2702854108
 H          1.0958288426        2.4369282253        0.0701829316
 H          0.2869380526        3.7917434719       -0.8631457377
  25
        -42.10610329
 C         -3.0946838036       -3.1138257658       -0.3380493337
 C         -3.1912964461       -1.8488895619        0.0577754770
 C         -2.0795908303       -0.9354061364        0.0197031571
 N         -0.8610445092       -1.1874993853       -0.3730331948
 C         -0.1756931021       -0.0246631164       -0.2186711887
 C          1.2679145077        0.0565957787       -0.5436358648
 O          1.7561923754       -0.2612141012       -1.5939138712
 O          1.9549763201        0.5398264730        0.4987758035
 C          3.3713471251        0.6551626961        0.3400448058
 C          4.0708419089       -0.6653362426        0.6259676238
 C         -1.0390228647        0.9393972369        0.2743834708
 C         -0.9271479763        2.3388118656        0.5882395610
 C          0.0916931420        3.1238532805        0.2543922482
 O         -2.2459034390        0.3409966823        0.4232286618
 H         -3.9368871490       -3.7819400876       -0.3035829168
 H         -2.1603567646       -3.4989997384       -0.7069535767
 H         -4.1138439279       -1.4274470371        0.4312268735
 H          3.6724341018        1.4257784125        1.0529305804
 H          3.5878212535        0.9833257744       -0.6822995558
 H          3.8211658391       -1.0137938377        1.6251220590
 H          5.1463726192       -0.5315298813        0.5530004614
 H          3.7577993529       -1.4136733824       -0.0977723704
 H         -1.7824955284        2.7375026491        1.1175610895
 H          0.9391500280        2.7578833654       -0.2968110572
 H          0.1009358966        4.1651076960        0.5238203747
  25
        -42.10605822
 C         -3.3574243193       -2.9866672249        0.3425769581
 C         -3.3718876799       -1.6759217020        0.1247886269
 C         -2.1683731237       -0.8879735867        0.0645503604
 N         -0.9421253647       -1.3053920515        0.1947227057
 C         -0.1527749594       -0.2057055381        0.0503732648
 C          1.3105903435       -0.3788383125        0.1544754999
 O          1.8429798037       -1.1789907302        0.8760424712
 O          1.9751447713        0.4353888130       -0.6795212937
 C          3.4000157187        0.3168436833       -0.6844962321
 C          4.0375993307        1.0995052884        0.4550069390
 C         -0.9683018320        0.8986006640       -0.1623767979
 C         -0.8054455694        2.3196102134       -0.3213730294
 C          0.3356619959        3.0000550348       -0.2940347785
 O         -2.2453543082        0.4419931780       -0.1486050278
 H         -4.2650687466       -3.5621855865        0.3861032564
 H         -2.4244524803       -3.5037994356        0.4828340301
 H         -4.2883062833       -1.1211160709       -0.0185330612
 H          3.7104065240        0.7075590990       -1.6557086344
 H          3.6644056768       -0.7425121199       -0.6044897494
 H          3.7738830347        2.1529260985        0.3919125049
 H          5.1181116151        1.0034615904        0.3988400785
 H          3.6993218281        0.7048674240        1.4099601593
 H         -1.7477504623        2.8352456701       -0.4579411354
 H          1.2845401285        2.5150925417       -0.1654442966
 H          0.3407804058        4.0696897607       -0.4105793869
