  23
        -42.29130004
 C          1.0079289640        3.7229979295       -0.9624334043
 C          1.0673289680        2.5008434953       -0.4499075065
 C         -0.0801015088        1.6179749204       -0.2510855540
 C         -1.3528302908        2.1282887711       -0.0110780508
 C         -2.4314105674        1.2957669844        0.2162313717
 C         -2.2865381604       -0.0845731199        0.2032970265
 C         -3.4315896502       -1.0197927693        0.4267226985
 C         -1.0123184309       -0.5846009379       -0.0370052206
 F         -0.8610812271       -1.9260797801       -0.0993821285
 C          0.0976883105        0.2238095890       -0.2538620549
 C          1.4094826235       -0.3696938373       -0.5331531782
 C          1.9508665828       -1.3521069759        0.1663961478
 F          1.4609833592       -1.9116641833        1.2609694756
 F          3.1344935956       -1.8912516226       -0.1141509259
 H          1.8909840847        4.3274092645       -1.0775460068
 H          0.0846170973        4.1605608082       -1.3023354849
 H          2.0246441831        2.0947478530       -0.1507299805
 H         -1.4920497079        3.1974251109        0.0218098678
 H         -3.4055753716        1.7201928022        0.4079557812
 H         -4.3282806269       -0.4725994099        0.7032413756
 H         -3.1885482203       -1.7319343934        1.2137049659
 H         -3.6313561869       -1.5911484154       -0.4794867734
 H          1.9712027528        0.0087237917       -1.3732629651
