23
 energy: -38.666306171305 gnorm: 0.000054703063 xtb: 6.4.1 (23d549d)
C        -4.04673904260000   -1.25213141170000   -0.00325111850000
C        -2.81278036720000   -1.74841032630000    0.00013541510000
C        -1.61668696970000   -0.94637176770000    0.00088420670000
C        -0.29868999490000   -1.32866102000000    0.00107125140000
C         0.46412758290000   -0.13555868540000    0.00088755550000
C         1.92102287930000   -0.01754082140000   -0.00074541270000
O         2.54278230340000    1.01905992600000   -0.00477234950000
O         2.51153859890000   -1.22543755290000    0.00281766510000
C         3.92950019660000   -1.21678065640000   -0.00031663980000
C        -0.45570236500000    0.90773370120000    0.00087590680000
C        -0.23249717280000    2.32771215540000    0.00138360690000
C        -1.21079670670000    3.23090345010000    0.00105989750000
O        -1.70176108640000    0.40711665220000    0.00083742200000
H        -4.91239699460000   -1.89013216740000   -0.00391184170000
H        -4.22114851490000   -0.18986941180000   -0.00547120860000
H        -2.63672188630000   -2.81475116490000    0.00220976000000
H         0.08593201260000   -2.32712651750000    0.00101505300000
H         4.24048117920000   -2.25790535610000    0.02912494400000
H         4.30854987790000   -0.67732656300000    0.87047094660000
H         4.30462548440000   -0.72954985560000   -0.90307257180000
H         0.80939072090000    2.61170222070000    0.00181880490000
H        -2.24711378760000    2.93705703360000    0.00026835390000
H        -1.00165497900000    4.28574460970000    0.00163216050000
