  21
        -30.12658424
 C         -3.7232213459        0.7962665313       -0.0030791521
 C         -2.9232201414       -0.2629685961       -0.0016127643
 C         -1.4706814229       -0.1677319542        0.0006952050
 C         -0.6684740649       -1.3178555360       -0.0004097481
 C          0.7040698870       -1.1765254748        0.0004497975
 C          1.6055254786       -2.3694431113       -0.0033991429
 C          1.1913956890        0.1515480061        0.0038729574
 C          2.6163389117        0.4593004611        0.0060862571
 C          3.0871346705        1.7010069939       -0.0095862522
 N          0.3588631435        1.1908052710        0.0053508775
 N         -0.9198115033        1.0462100805        0.0032670630
 H         -4.7954230094        0.7008654367       -0.0051573642
 H         -3.3077600273        1.7890341386       -0.0021272872
 H         -3.3239487795       -1.2689834220       -0.0024988080
 H         -1.1249579770       -2.2987524187       -0.0026354477
 H          1.0195287330       -3.2859754035       -0.0113879805
 H          2.2408394252       -2.3711896366        0.8816516018
 H          2.2480291739       -2.3600392858       -0.8831372258
 H          3.2917609778       -0.3840940063        0.0210617759
 H          2.4121649045        2.5388548360       -0.0249572166
 H          4.1436319498        1.9077166759       -0.0073612957
  21
        -30.12600248
 C         -3.8089470682       -0.6086691521       -0.0007210743
 C         -2.9061171853        0.3641696659        0.0005338142
 C         -1.4599529958        0.1958966594        0.0002581612
 C         -0.8023442941       -1.0423744190       -0.0005106440
 C          0.5770629142       -1.0646332798       -0.0007331152
 C          1.3281463951       -2.3576756314       -0.0026799197
 C          1.2236525719        0.1939625765        0.0007663858
 C          2.6754293963        0.3259668914        0.0025450164
 C          3.2926018995        1.5019751537       -0.0007871612
 N          0.5236915626        1.3259718289        0.0011870728
 N         -0.7637201632        1.3333276367        0.0006341348
 H         -4.8632238429       -0.3917920289       -0.0006225862
 H         -3.5447940794       -1.6531027905       -0.0022975683
 H         -3.2132659109        1.4009157986        0.0017385482
 H         -1.3628919924       -1.9657269229       -0.0012070613
 H          0.6363163067       -3.1971831513       -0.0065307590
 H          1.9608614691       -2.4333156819        0.8809273838
 H          1.9648161078       -2.4283601278       -0.8838246192
 H          3.2437266544       -0.5930060549        0.0067135876
 H          2.7233379158        2.4151441170       -0.0047816160
 H          4.3663329166        1.5798069377        0.0004075065
  21
        -30.12341811
 C         -3.7577099295       -0.7971655401        0.2964508318
 C         -2.9698356955        0.2308199586        0.0074492025
 C         -1.5151264139        0.2056230093       -0.0550062042
 C         -0.7332783085       -0.9500068154        0.0646133534
 C          0.6435050526       -0.8410589510        0.0111762453
 C          1.4972009183       -2.0664148984        0.0718925569
 C          1.1552340287        0.4650900840       -0.1523492434
 C          2.5694201443        0.8276943437       -0.1968202589
 C          3.5540030986        0.2672717590        0.4926076143
 N          0.3398692828        1.5050715816       -0.3238951284
 N         -0.9408544386        1.3889719978       -0.2748951334
 H         -4.8281697846       -0.6891997492        0.3267800070
 H         -3.3783757856       -1.7808973084        0.5178141716
 H         -3.3882514934        1.2065111407       -0.1974005380
 H         -1.1955243843       -1.9202391434        0.1731186648
 H          0.9409257536       -2.9273478677       -0.2950679698
 H          1.7887758189       -2.2726689093        1.1017593378
 H          2.3994410830       -1.9410643469       -0.5221246886
 H          2.7651749713        1.6939378154       -0.8145841932
 H          3.4013753067       -0.5488263537        1.1768734368
 H          4.5623797773        0.6382767311        0.4188980799
