23
 energy: -44.952962356005 gnorm: 0.000036817621 xtb: 6.4.1 (23d549d)
C         3.10214834500000    2.45084647850000   -0.02745538640000
C         2.66251149910000    1.19511900120000   -0.01476477700000
C         1.27199002510000    0.82789851110000   -0.01646285000000
S         0.04503314640000    2.05192037380000   -0.08978922550000
C        -1.22142601830000    0.87323737710000   -0.04795277740000
C        -2.60319143160000    1.27480403500000   -0.15198897210000
C        -3.02520943300000    2.53272856730000   -0.04978135470000
C        -0.70440989520000   -0.41204048790000   -0.00240668350000
C        -1.58032000300000   -1.60502523750000    0.03107217880000
O        -1.39009481010000   -2.58360349300000   -0.65274279330000
O        -2.63122163960000   -1.55699811030000    0.85447945470000
C         0.72205144010000   -0.44180691450000   -0.00088068440000
C         1.61077420030000   -1.64949929020000    0.08183719950000
O         2.66234855430000   -1.60631223240000    0.66852101210000
O         1.22841105810000   -2.74809752720000   -0.54848889100000
H         4.15362396550000    2.67459546860000   -0.02517712550000
H         2.42766027710000    3.29300085910000   -0.03771308660000
H         3.35360881450000    0.36570251220000    0.01663656190000
H        -3.31624321800000    0.48577943580000   -0.35540903610000
H        -2.34205859680000    3.34362541470000    0.14104565210000
H        -4.06499610880000    2.78506597630000   -0.15373485090000
H        -2.66346315050000   -0.75108300510000    1.38847644070000
H         0.29238745020000   -2.75143986150000   -0.85691945170000
