20
 energy: -34.894311523000 gnorm: 0.000112419766 xtb: 6.4.1 (23d549d)
C        -3.57690482600000    1.29825091950000   -0.00049202660000
C        -2.88863055330000    0.16225728690000    0.00679173130000
C        -1.43931044800000    0.03545326070000    0.00263445000000
C        -0.56210328070000    1.11980650400000   -0.00201356990000
C         0.80366608900000    0.93505295480000   -0.00585180970000
F         1.56140430320000    2.05245180930000   -0.01240288050000
C         1.40170436770000   -0.33024068530000   -0.00596806400000
C         2.83213824970000   -0.59905120780000   -0.01065306270000
C         3.82644212960000    0.28215960900000    0.02297640220000
C         0.52058782460000   -1.41539479340000   -0.00289739810000
C        -0.84319246480000   -1.22985550150000    0.00228224390000
F        -1.62874752480000   -2.32879181570000    0.00624795170000
H        -4.65283953020000    1.29421873120000    0.00302114690000
H        -3.10881226420000    2.26746573100000   -0.01039293280000
H        -3.42168308290000   -0.77923158890000    0.01586111180000
H        -0.93869913610000    2.12955305090000   -0.00258127230000
H         3.07126903930000   -1.65517464970000   -0.04259991090000
H         3.67530698890000    1.34537267340000    0.05887123980000
H         4.85082311340000   -0.05008573660000    0.01607952230000
H         0.90744074520000   -2.42302307170000   -0.00338228610000
