  21
        -34.73699999
 C          2.0488995093        2.8048763724       -0.1041613771
 C          2.1882103639        1.4858732496       -0.0369796765
 C          1.1436198569        0.4696750647       -0.0012133370
 C          1.5468345311       -0.8628569548       -0.0896485005
 C          0.6188963415       -1.8810665087       -0.0470733893
 F          1.0419772713       -3.1637225867       -0.1218382043
 C         -0.7293227945       -1.6242489798        0.0756150463
 C         -1.1671818236       -0.3042683035        0.1374847376
 C         -2.6117435629       -0.0652338492        0.2440371671
 C         -3.2998075757        0.8605480175       -0.4142038899
 C         -0.2329587528        0.7443317402        0.1187304998
 O         -0.6397786019        2.0292808042        0.2621879210
 H          2.9146531282        3.4457320767       -0.1303687572
 H          1.0909649858        3.2878972585       -0.1372227973
 H          3.1890269450        1.0706526950       -0.0179779435
 H          2.5934270007       -1.1059364315       -0.1863157771
 H         -1.4372765804       -2.4374547167        0.1029137329
 H         -3.1358351260       -0.7521203720        0.8974253249
 H         -2.8477733259        1.5203554344       -1.1380424087
 H         -4.3657208701        0.9556466468       -0.2936829914
 H         -1.5928346006        2.0407555189        0.4370802190
