  21
        -25.38953072
 C         -3.0626018946       -0.3727983193        0.0002310236
 C         -1.6026624756       -0.0311883549       -0.0000796284
 C         -1.1650425012        1.2845950079       -0.0002094566
 C          0.1877697707        1.5688695242       -0.0001480065
 C          1.1440804137        0.5618500612        0.0000167586
 C          2.6008572086        0.9255407456        0.0002591123
 C          0.7141353200       -0.7667113665        0.0000220128
 C          1.6659967335       -1.9292552248       -0.0001416970
 C         -0.6476089262       -1.0373732052       -0.0000212161
 H         -3.6724013327        0.5272184231       -0.0021108185
 H         -3.3150958695       -0.9613297446        0.8817158219
 H         -3.3146085880       -0.9657077180       -0.8784295737
 H         -1.8831331713        2.0923176007       -0.0003643578
 H          0.5101695549        2.6009578598       -0.0002447171
 H          2.7198277893        2.0063393324       -0.0002267489
 H          3.1008502931        0.5272884206       -0.8821894652
 H          3.1002345437        0.5281968446        0.8834806832
 H          2.7029938477       -1.6121717357        0.0026008083
 H          1.4971497969       -2.5478338284       -0.8812125289
 H          1.4934763778       -2.5512044820        0.8778136566
 H         -0.9722720004       -2.0694953556        0.0000144952
