  36
        -48.32951982
 C         -5.0536633874        1.2516795685       -0.5988979276
 C         -3.6963166596        0.7196352168       -0.2483988507
 C         -2.6438378760        1.5627463891        0.0600006880
 C         -1.3928435832        1.0605298233        0.3847322258
 C         -1.1761545847       -0.3088166191        0.4077985384
 O          0.0057306950       -0.9212632456        0.7353699058
 C          1.1481123588       -0.1428813392        0.9918763903
 C          1.7790841099        0.4002515494       -0.3106824124
 C          2.4570264742       -0.7159919780       -1.1155236383
 C          3.7985340807       -1.1140004045       -0.5032397857
 C          4.6495567431        0.1382747053       -0.3114637094
 C          3.8717114205        1.1476382308        0.5304157732
 O          2.6384925158        1.4956148874       -0.0643531678
 C         -2.2313749963       -1.1816172541        0.0974631607
 C         -1.9897928151       -2.6592284069        0.1246972522
 C         -3.4660502081       -0.6526223159       -0.2232565934
 H         -5.0493895154        2.3383054524       -0.6263972474
 H         -5.7897737208        0.9267866452        0.1359673563
 H         -5.3696489311        0.8796126296       -1.5726403636
 H         -2.7897030967        2.6332803991        0.0480463231
 H         -0.6001398607        1.7551743139        0.6141925596
 H          1.8337601046       -0.8244355622        1.5014175989
 H          0.9263715707        0.6940634807        1.6657545668
 H          0.9683988978        0.8271260656       -0.9139858242
 H          2.6247191840       -0.3562179729       -2.1328235599
 H          1.7798637669       -1.5700474883       -1.1579463067
 H          4.3070214644       -1.8238616851       -1.1581319188
 H          3.6455429999       -1.6030579428        0.4612328232
 H          4.8700663928        0.5825423856       -1.2839812265
 H          5.5913969293       -0.1007987880        0.1837503013
 H          4.4178963091        2.0900957503        0.6148935943
 H          3.7115453053        0.7451224803        1.5412754016
 H         -1.2037495972       -2.9232911427       -0.5813540295
 H         -2.8945960836       -3.2050725057       -0.1288341841
 H         -1.6524740522       -2.9645308433        1.1138928547
 H         -4.2774718547       -1.3263232173       -0.4617027268
  36
        -48.32848136
 C         -5.3524481779        0.8447136136        0.8249604148
 C         -3.9251772339        0.5507368295        0.4716900997
 C         -2.9338293813        1.5060897456        0.6031943317
 C         -1.6165318971        1.2209832630        0.2758587702
 C         -1.2708796921       -0.0372663461       -0.1915324265
 O         -0.0054658885       -0.4223300857       -0.5412297867
 C          1.0437722515        0.5062051898       -0.4090362044
 C          2.3278565496       -0.2004360877       -0.8833221899
 C          2.7639620608       -1.3029916875        0.0896995984
 C          3.4123006676       -0.7175454887        1.3424910505
 C          4.5316390010        0.2321398998        0.9245336084
 C          3.9649251610        1.2902055465       -0.0202664362
 O          3.3649978342        0.7164241097       -1.1637530432
 C         -2.2625154269       -1.0212597900       -0.3329394099
 C         -1.8782842072       -2.3768327963       -0.8394504697
 C         -3.5654529225       -0.7087773565        0.0000209394
 H         -5.4722002408        1.8821490692        1.1265365445
 H         -5.6800652767        0.2056680554        1.6445456564
 H         -6.0032406468        0.6522766200       -0.0269783358
 H         -3.1814557343        2.4936407003        0.9652116451
 H         -0.8722593510        1.9939705522        0.3877466842
 H          1.1318318835        0.8335158364        0.6349335384
 H          0.8740591977        1.3870250292       -1.0440788279
 H          2.0942605650       -0.6516156709       -1.8549876624
 H          3.4885134337       -1.9428146222       -0.4178774187
 H          1.8901746562       -1.9029785338        0.3437449289
 H          3.8081019356       -1.5222723746        1.9647430094
 H          2.6725875417       -0.1742047065        1.9345482516
 H          5.3095903712       -0.3286949624        0.4030699696
 H          4.9766549939        0.7195637658        1.7928832442
 H          4.7592436667        1.9299225240       -0.4120285909
 H          3.2435044373        1.9222874649        0.5178173039
 H         -1.3860527989       -2.2883392403       -1.8063591329
 H         -2.7514262649       -3.0159975063       -0.9380608136
 H         -1.1697466000       -2.8446251694       -0.1573392756
 H         -4.3291282027       -1.4662940325       -0.1096956284
  36
        -48.32701134
 C         -5.3068638156        0.2426676764        0.2327706567
 C         -3.8132534809        0.2634467948        0.1046561584
 C         -3.1304934415        1.4126074534       -0.2503200281
 C         -1.7488289931        1.4179349586       -0.3662120640
 C         -1.0218094262        0.2611173565       -0.1282328213
 O          0.3409451567        0.1662789172       -0.2175821298
 C          1.0679188444        1.3312592591       -0.5319328380
 C          2.5921944823        1.0892137356       -0.5589649102
 C          3.0178974790       -0.0859986129       -1.4510113936
 C          2.8217647768       -1.4315375114       -0.7562334395
 C          3.4892009128       -1.3908019305        0.6150269069
 C          2.9276461868       -0.2084286794        1.4005235628
 O          3.1558017173        1.0176555888        0.7322715882
 C         -1.6962385641       -0.9160586786        0.2347303175
 C         -0.9196291712       -2.1714313567        0.4906642829
 C         -3.0730059352       -0.8904810325        0.3430236402
 H         -5.7262111934        1.2279789381        0.0464801055
 H         -5.5990102777       -0.0766080682        1.2323386948
 H         -5.7394910268       -0.4587491974       -0.4799131292
 H         -3.6748176334        2.3262604361       -0.4412445630
 H         -1.2554063004        2.3357551565       -0.6441585746
 H          0.8707365393        2.1137886340        0.2145060337
 H          0.7680291162        1.7037737513       -1.5222278496
 H          3.0170720581        2.0145823086       -0.9720266996
 H          4.0774528050        0.0400951868       -1.6864372049
 H          2.4525555495       -0.0490312743       -2.3829545304
 H          3.2516772674       -2.2276619757       -1.3679491079
 H          1.7574568869       -1.6252014714       -0.6340829260
 H          4.5676148340       -1.2618349455        0.4986240120
 H          3.3062378907       -2.3154109241        1.1639466223
 H          3.4298029320       -0.1000941199        2.3649865473
 H          1.8535364841       -0.3532128865        1.5715292870
 H         -0.4730748870       -2.5327622259       -0.4355718699
 H         -1.5652490007       -2.9485593577        0.8913482251
 H         -0.1120787409       -1.9811481462        1.1955984695
 H         -3.5907222666       -1.7973467916        0.6234995039
  36
        -48.32664422
 C         -4.6577916882        1.7261444568       -0.0487564955
 C         -3.4048164047        0.9078054244       -0.1385532223
 C         -2.2817066789        1.3702625924       -0.8003307776
 C         -1.1295178999        0.6035707420       -0.8785368155
 C         -1.0774616838       -0.6500193688       -0.2876845902
 O         -0.0157239216       -1.5139546847       -0.3231137156
 C          1.2742705361       -1.0838785662       -0.6879637829
 C          2.0772979573       -0.6034460158        0.5450709090
 C          1.7738212144        0.8438593318        0.9551250469
 C          2.4258354790        1.8429093645        0.0011769892
 C          3.9151885276        1.5281561192       -0.1056915773
 C          4.0873854487        0.0699260389       -0.5274532021
 O          3.4654673068       -0.8200137103        0.3756397047
 C         -2.2118409942       -1.1388996886        0.3825271369
 C         -2.1589214877       -2.4974103949        1.0091634631
 C         -3.3469107168       -0.3547741509        0.4438218783
 H         -4.5113078134        2.7102118601       -0.4867411591
 H         -4.9606754156        1.8480144162        0.9903132684
 H         -5.4722886185        1.2305407510       -0.5764839631
 H         -2.2939059350        2.3445054546       -1.2676991488
 H         -0.2828526717        1.0066133190       -1.4117257649
 H          1.2455186562       -0.3306326427       -1.4788747560
 H          1.7740399014       -1.9769208106       -1.0785749409
 H          1.8025652825       -1.2752212805        1.3680814187
 H          2.1803298214        1.0022057786        1.9566694287
 H          0.6939867204        0.9907296623        0.9991743847
 H          2.2744213565        2.8587382976        0.3706807505
 H          1.9713300367        1.7807598458       -0.9900768284
 H          4.3895020207        1.6749573555        0.8664062191
 H          4.4020730874        2.1793592585       -0.8326644319
 H          5.1417855863       -0.2159375400       -0.5232374365
 H          3.6920471925       -0.0735040139       -1.5438069332
 H         -1.3321915163       -2.5519752212        1.7156859361
 H         -1.9813855113       -3.2533929752        0.2459319232
 H         -3.0880040949       -2.7230176636        1.5256746678
 H         -4.2162121847       -0.7339046165        0.9630097074
  36
        -48.32567635
 C         -4.6950405528        0.4801425827       -1.3397981095
 C         -3.3615001512        0.3318813356       -0.6711332469
 C         -2.6032242384        1.4315578931       -0.3124509356
 C         -1.3718757656        1.2834923917        0.3071857997
 C         -0.8748205001        0.0193599045        0.5843939819
 O          0.3180343986       -0.2628967449        1.1925058462
 C          1.1844890529        0.7618285271        1.6170847570
 C          2.3287863458        1.1397264482        0.6400903624
 C          1.9234739481        1.2616983238       -0.8376989607
 C          1.7877389032       -0.0973966532       -1.5245343158
 C          3.0358957142       -0.9321223642       -1.2529895311
 C          3.2622101868       -1.0005828033        0.2553710491
 O          3.4462293963        0.2894262324        0.8052659290
 C         -1.6336365489       -1.1102769059        0.2319528899
 C         -1.0982360367       -2.4760661804        0.5358110608
 C         -2.8550978771       -0.9327036465       -0.3866991979
 H         -4.8951720458        1.5211017298       -1.5805214980
 H         -5.4884535562        0.1182430507       -0.6861030971
 H         -4.7289938251       -0.1037559119       -2.2584403480
 H         -2.9677445344        2.4278169135       -0.5179580204
 H         -0.8168374591        2.1726766367        0.5649394680
 H          1.6634292238        0.3783484652        2.5257927472
 H          0.6268252039        1.6635993922        1.8857104829
 H          2.6981743991        2.1150180942        0.9843542714
 H          2.7089085140        1.8286451445       -1.3440218702
 H          0.9927575574        1.8230486321       -0.9200896683
 H          1.6536442576        0.0523987371       -2.5981993617
 H          0.9101616544       -0.6240607994       -1.1512168948
 H          3.9039478490       -0.4626587270       -1.7209979981
 H          2.9244542346       -1.9392864138       -1.6565020891
 H          4.1791022773       -1.5447415948        0.4934172314
 H          2.4126502857       -1.5016110136        0.7377800781
 H         -0.8541352393       -2.5547104236        1.5939329907
 H         -0.1804969512       -2.6579011710       -0.0230220737
 H         -1.8243917263       -3.2422071139        0.2775929540
 H         -3.4349773661       -1.8042111184       -0.6571362833
  36
        -48.32431106
 C         -4.8559479902        1.5665357103       -0.1125430650
 C         -3.5757978428        0.7917381811       -0.2007000501
 C         -2.6779000436        1.0283301898       -1.2341455709
 C         -1.4864795930        0.3336847923       -1.2993104423
 C         -1.1670826947       -0.6150479362       -0.3354326244
 O          0.0206202919       -1.3214588695       -0.4604021878
 C          1.0579308795       -0.9263785701        0.4139102239
 C          1.6590746393        0.4399022193        0.0194312995
 C          2.3998609745        0.3696739779       -1.3219344912
 C          3.7636875563       -0.3016197342       -1.1736677810
 C          4.5413564361        0.3876302852       -0.0561941161
 C          3.7087315497        0.3563981576        1.2238527139
 O          2.4540903250        0.9832729893        1.0561878275
 C         -2.0674180545       -0.8890139181        0.6960166207
 C         -1.7840923365       -1.9460678722        1.7215311623
 C         -3.2549744930       -0.1710114109        0.7437954701
 H         -5.3174340814        1.6595245417       -1.0935697553
 H         -4.6588971719        2.5720235273        0.2602026471
 H         -5.5580502879        1.0843283515        0.5628291274
 H         -2.9123909013        1.7629583458       -1.9907552449
 H         -0.7901257084        0.5114728841       -2.1049574056
 H          1.8020993607       -1.7224370856        0.3417177979
 H          0.7067433871       -0.8570615527        1.4511396572
 H          0.8222381920        1.1458204878       -0.0653663211
 H          2.5419262041        1.3859643670       -1.6957268644
 H          1.7774373251       -0.1792011216       -2.0297040252
 H          4.3114565132       -0.2365712768       -2.1156386803
 H          3.6388167400       -1.3597202394       -0.9341598423
 H          4.7315301588        1.4271229701       -0.3305461419
 H          5.4976898954       -0.1070262684        0.1181640802
 H          4.1979196599        0.9190994086        2.0226400066
 H          3.5794931397       -0.6830478982        1.5588507508
 H         -1.0883942681       -2.6816345668        1.3244141090
 H         -2.7050642050       -2.4490576773        2.0088246404
 H         -1.3498785350       -1.5048741055        2.6198962328
 H         -3.9529248521       -0.3810554346        1.5428260335
  36
        -48.32274863
 C         -3.8670251735        2.0538846108        1.1334780208
 C         -2.8852446410        1.1266157946        0.4815907780
 C         -2.3081198072        1.4547790123       -0.7392532635
 C         -1.4056257429        0.6015587358       -1.3395759965
 C         -1.0608119145       -0.5998987963       -0.7343562407
 O         -0.1667961554       -1.4409285078       -1.3833580365
 C          1.1334102223       -1.4765242433       -0.8343054954
 C          1.9353513733       -0.1869517843       -1.1068664973
 C          3.4291853395       -0.3767983818       -0.8041191896
 C          3.6831224033       -0.4084596026        0.7019063615
 C          3.0940000554        0.8523793288        1.3299284308
 C          1.6158943165        0.9620993289        0.9568446580
 O          1.4170039562        0.9489547988       -0.4385252291
 C         -1.6561017825       -0.9680810887        0.4732211742
 C         -1.3682700930       -2.2908363615        1.1233924735
 C         -2.5542675772       -0.0872028557        1.0621308138
 H         -3.5215158699        3.0839146663        1.0710730735
 H         -4.0143392862        1.7945092794        2.1789902407
 H         -4.8311299755        1.9942453651        0.6277090689
 H         -2.5627732270        2.3894470595       -1.2174166818
 H         -0.9464234481        0.8564527379       -2.2815635941
 H          1.6313652823       -2.3111468356       -1.3350195078
 H          1.0958596905       -1.6811892462        0.2408307491
 H          1.8043988846        0.0551018076       -2.1686094684
 H          3.9732552976        0.4669088969       -1.2340488027
 H          3.7862794017       -1.2917247657       -1.2780803573
 H          4.7562284218       -0.4618043860        0.8959745108
 H          3.2202222205       -1.2937553104        1.1429286768
 H          3.6224935954        1.7275662942        0.9469118166
 H          3.1960416957        0.8329732117        2.4156730806
 H          1.1971105339        1.9152660390        1.2879520449
 H          1.0460232773        0.1560902149        1.4416522283
 H         -1.0083738178       -3.0054515451        0.3864429422
 H         -2.2720558049       -2.6861315362        1.5829857080
 H         -0.6165002275       -2.1878849947        1.9082917964
 H         -3.0120441116       -0.3679741189        2.0013740807
  36
        -48.32218592
 C         -4.7658572079        1.3438489536       -0.8717568269
 C         -3.4667598268        0.8146669691       -0.3416084877
 C         -2.4124778070        1.6627462938       -0.0342719150
 C         -1.2231791708        1.1556875520        0.4554666465
 C         -1.0693439415       -0.2101356554        0.6459571518
 O          0.1177341488       -0.6910943412        1.1824372409
 C          1.0699222327       -1.1328841151        0.2419033433
 C          1.6206728577       -0.0021899891       -0.6548333935
 C          2.7507957154       -0.5115613894       -1.5614492074
 C          4.0430954112       -0.7203367355       -0.7728900266
 C          4.3778849375        0.5608798857       -0.0130208397
 C          3.1825758110        0.9670717564        0.8484844236
 O          2.0141127423        1.1410860464        0.0765368203
 C         -2.1201792801       -1.0831365711        0.3543300565
 C         -1.9845077874       -2.5607729085        0.5741474643
 C         -3.3019093649       -0.5489448223       -0.1371074340
 H         -4.7142769582        2.4188128110       -1.0242642634
 H         -5.5741486258        1.1316306481       -0.1725410022
 H         -5.0133944331        0.8681326937       -1.8198804249
 H         -2.5189227288        2.7281705141       -0.1788166634
 H         -0.3945787842        1.8054412684        0.6917872728
 H          0.6473941469       -1.9067599141       -0.4153215287
 H          1.8635052189       -1.5802923773        0.8434657146
 H          0.7907742397        0.3604361061       -1.2753487834
 H          2.9285739536        0.2373761526       -2.3361239458
 H          2.4386601707       -1.4378406163       -2.0459986087
 H          4.8542945259       -0.9789385987       -1.4564717158
 H          3.9264571601       -1.5463756677       -0.0684072822
 H          4.5891351759        1.3604821008       -0.7260105769
 H          5.2544450811        0.4198592336        0.6204000248
 H          3.3548737414        1.9374279652        1.3203074154
 H          3.0163797000        0.2225353157        1.6388637884
 H         -1.2160479876       -2.7612010999        1.3169450262
 H         -1.7086121394       -3.0623232156       -0.3548120172
 H         -2.9273441055       -2.9829517147        0.9150365088
 H         -4.1211976690       -1.2180965646       -0.3632821153
