  19
        -35.16768879
 C         -3.6252187499       -2.2099770310       -0.0103660999
 C         -3.4726934349       -0.8919990084        0.0029481575
 C         -2.2096135836       -0.1608518928        0.0016263504
 C         -0.9571299808       -0.7743448487       -0.0031816940
 C          0.1977063820        0.0063625502       -0.0037170181
 C          1.4878919975       -0.6679369785       -0.0081388688
 C          2.6945114659       -0.1213341525       -0.0004127231
 F          3.0065875123        1.1662740193        0.0130384952
 F          3.8151447197       -0.8369178003       -0.0050203740
 C          0.0415976043        1.3947245952       -0.0001160436
 C         -1.2454806017        1.9082660942        0.0046569569
 N         -2.3348111037        1.1676780336        0.0059016160
 H         -4.6040497615       -2.6577228103       -0.0083842886
 H         -2.7959013354       -2.8970590890       -0.0238984870
 H         -4.3366801871       -0.2418838146        0.0150538898
 H         -0.8760555928       -1.8497360717       -0.0056115264
 H          1.4685365643       -1.7482521859       -0.0180070200
 H          0.8874908548        2.0603823987       -0.0010800441
 H         -1.4110450944        2.9779058255        0.0077989563
