  20
        -29.88564596
 C          1.1769798040       -2.5210379604        0.0082409499
 C          0.4352046580       -1.2157042135       -0.0033466542
 C         -0.9495780538       -1.2048958443        0.0003784427
 C         -1.6226307314       -0.0000073036       -0.0017285516
 F         -2.9793133088       -0.0000143380       -0.0018736113
 C         -0.9495916364        1.2048872271        0.0003782366
 C          0.4351922117        1.2157076248       -0.0033692978
 C          1.1769461241        2.5210575696        0.0082433687
 C          1.1366047377        0.0000041185       -0.0140683726
 N          2.5216577148       -0.0000022333        0.0420598825
 H          0.4782147669       -3.3512497468        0.0589587750
 H          1.8423151293       -2.5765223941        0.8693974167
 H          1.7766611351       -2.6391489112       -0.8962302164
 H         -1.5080391808       -2.1278109122        0.0056260669
 H         -1.5080630896        2.1277963817        0.0056382793
 H          0.4781601357        3.3512513652        0.0589636712
 H          1.7766116411        2.6391719933       -0.8962379563
 H          1.8422817106        2.5765770259        0.8694002210
 H          2.9687182684        0.8423011163       -0.2808019921
 H          2.9686540058       -0.8421983047       -0.2810760165
