16
 energy: -33.898744320963 gnorm: 0.000027088814 xtb: 6.4.1 (23d549d)
C         4.42807336170000    0.06808687330000   -0.01276991880000
C         3.43668327280000   -0.81226624780000    0.02710191400000
C         2.03733137600000   -0.43840389400000    0.01426497810000
C         0.92016461610000   -1.31426179230000    0.05933933810000
C        -0.16371262450000   -0.47276852540000    0.02354104380000
C        -1.57164128190000   -0.76791801910000    0.04251035320000
C        -2.53930604210000    0.14086596480000    0.00035559940000
F        -2.39529384620000    1.44895320080000   -0.06543732310000
F        -3.82867985720000   -0.16917495230000    0.01982398880000
O         0.27625439940000    0.79874234110000   -0.03783236790000
N         1.62114338540000    0.80880358200000   -0.04293634550000
H         5.45945847110000   -0.23905823060000   -0.00185747390000
H         4.22143552160000    1.12317830570000   -0.05738927260000
H         3.62611169360000   -1.87630561470000    0.07237337170000
H         0.92357563820000   -2.38239708200000    0.10963981100000
H        -1.85273366510000   -1.80674033960000    0.09496805830000
