23
 energy: -33.594846338574 gnorm: 0.000039464830 xtb: 6.4.1 (23d549d)
C        -2.75586092430000    2.21534282530000   -0.05952035420000
C        -2.59252450160000    0.89756350460000   -0.04375552550000
C        -1.28590799180000    0.25516533660000   -0.02041127470000
N        -0.21083722970000    1.04085752210000   -0.08326273060000
C         1.00429150280000    0.51834321050000   -0.08020211530000
C         2.10304519000000    1.47537324600000   -0.07669553010000
C         3.31818428990000    1.27971818030000    0.42245946270000
C         1.15071343920000   -0.89205680060000   -0.11585213070000
N         2.35353712560000   -1.52658666880000   -0.23483639700000
N         0.08284993650000   -1.67888154380000   -0.01266414900000
C        -1.12425424790000   -1.13862404010000    0.07410713910000
C        -2.26037711070000   -2.09547343650000    0.25126533430000
H        -3.73211131390000    2.66860233130000   -0.07847299460000
H        -1.90275804290000    2.87109863620000   -0.05262334440000
H        -3.44798294300000    0.23725690650000   -0.04743788380000
H         1.83168727170000    2.44021797120000   -0.48469742530000
H         3.60554262890000    0.36432920180000    0.91147582070000
H         4.05973539860000    2.06057964530000    0.40029802240000
H         3.10399233710000   -1.01687918930000   -0.67145530660000
H         2.28613100330000   -2.50916715460000   -0.45114313900000
H        -1.86156084080000   -3.10153766740000    0.34751335150000
H        -2.92887340850000   -2.05986158180000   -0.60797094010000
H        -2.83288631630000   -1.84831964930000    1.14357880020000
