  22
        -36.89603812
 C          4.0489900942        0.5893482005       -0.0984379526
 C          3.3082491551       -0.5128006257       -0.1052804103
 C          1.8550633347       -0.5772242043       -0.0242857310
 C          1.2235463026       -1.8238371429        0.0570062236
 C         -0.1468517504       -1.9314573343        0.1477494616
 C         -0.9750772114       -0.8063451136        0.1440002606
 C         -2.4183444359       -0.9581965869        0.2938499129
 C         -3.1152220959       -1.9456034205       -0.2530244729
 C         -0.3373004747        0.4403227016        0.0462395121
 N         -1.0895093308        1.6650221382       -0.0196999663
 O         -2.2465352199        1.6143344559       -0.3828047878
 O         -0.5126413512        2.6902983938        0.2828202626
 C          1.0436852586        0.5517134959       -0.0280290272
 H          5.1222347337        0.5389293401       -0.1599003568
 H          3.6273714237        1.5771315052       -0.0284033956
 H          3.7967834222       -1.4772426273       -0.1679522729
 H          1.8269833783       -2.7201873580        0.0589051174
 H         -0.6019069365       -2.9053126723        0.2434556193
 H         -2.9272774040       -0.2048565978        0.8789679525
 H         -2.6601427582       -2.6827817394       -0.8938896213
 H         -4.1776610694       -2.0284515916       -0.1072154059
 H          1.4657728952        1.5414926877       -0.1055501925
  22
        -36.89588027
 C          4.2948931851       -0.8332307317        0.0662263498
 C          3.2979094829        0.0430402676        0.1028888379
 C          1.8750750030       -0.2588557245        0.0221308133
 C          1.3631443807       -1.5590931319       -0.0552033573
 C          0.0077865746       -1.7885046780       -0.1382570533
 C         -0.9230263194       -0.7455645543       -0.1342892808
 C         -2.3460453621       -1.0337040697       -0.2759785709
 C         -2.9437694260       -2.0812639059        0.2764213812
 C         -0.4051937577        0.5553560414       -0.0450432269
 N         -1.2661326059        1.7060641247        0.0148528484
 O         -2.4133149268        1.5516716985        0.3803953300
 O         -0.7859466954        2.7779463379       -0.2945833755
 C          0.9611673190        0.7895589191        0.0245240453
 H          5.3199926815       -0.5123253886        0.1306690364
 H          4.1402968158       -1.8940342866       -0.0314818458
 H          3.5265501364        1.0970397519        0.1959911953
 H          2.0374557069       -2.4008372617       -0.0556808922
 H         -0.3568890169       -2.8003040896       -0.2283772287
 H         -2.9273208081       -0.3326091986       -0.8585997015
 H         -2.4180177668       -2.7711893080        0.9157903969
 H         -3.9944927452       -2.2638932808        0.1366841915
 H          1.3003758401        1.8132205315        0.0923596893
  22
        -36.89479414
 C          4.0295732230        0.5932535057       -0.1339987050
 C          3.2979402961       -0.5036593780        0.0236569987
 C          1.8434588657       -0.5759520395        0.0497696633
 C          1.2147053463       -1.8236554931        0.1164996077
 C         -0.1579594149       -1.9346026226        0.1296318654
 C         -0.9942765727       -0.8145960590        0.1001187294
 C         -2.4446204631       -0.9808477503        0.0794565039
 C         -3.0613997144       -2.0158664150       -0.4790808240
 C         -0.3566821853        0.4368899501        0.0594005832
 N         -1.0798797218        1.6854374692        0.0329543184
 O         -2.1344470190        1.7663438416        0.6260415820
 O         -0.5650476498        2.6031557466       -0.5717063867
 C          1.0257366771        0.5484038352        0.0175783252
 H          5.1047601561        0.5482918429       -0.1442901071
 H          3.5982409025        1.5706371414       -0.2642268155
 H          3.7957478239       -1.4586197876        0.1375176955
 H          1.8198115246       -2.7179913696        0.1554637169
 H         -0.6091812874       -2.9128296643        0.1869113787
 H         -3.0272507985       -0.1918273289        0.5304011407
 H         -2.5312698557       -2.8081544317       -0.9817584660
 H         -4.1346509821       -2.0927771327       -0.4720107349
 H          1.4503788571        1.5391888221       -0.0279543362
  22
        -36.89387405
 C          4.0020384363        0.6955931264       -0.3019623466
 C          3.3478099515       -0.4107064562        0.0311664394
 C          1.9010438535       -0.5719157163        0.0906495138
 C          1.3572306828       -1.8451503161        0.2884519189
 C         -0.0062297071       -2.0470492554        0.3250058281
 C         -0.9036846842       -0.9888254207        0.1790548379
 C         -2.3376829320       -1.2629165670        0.1055008781
 C         -3.1608925449       -0.7180286563       -0.7783366434
 C         -0.3532831875        0.2903652028        0.0377413586
 N         -1.1838397309        1.4704533918        0.0343058230
 O         -2.1064116567        1.5143234129        0.8176382575
 O         -0.8693199491        2.3652832016       -0.7217647575
 C          1.0148719559        0.4961528676       -0.0243224506
 H          5.0776410221        0.7209572361       -0.3251658554
 H          3.5036040410        1.6107687230       -0.5709388324
 H          3.9093310837       -1.3041310509        0.2739617287
 H          2.0216371691       -2.6893521090        0.4030565035
 H         -0.3979990101       -3.0456321883        0.4496516273
 H         -2.6967538067       -2.0199728922        0.7897697382
 H         -2.8310641288        0.0044039663       -1.5073974492
 H         -4.2026843104       -0.9830544283       -0.8135338769
 H          1.3742727393        1.5071676171       -0.1373481229
  22
        -36.89085993
 C          4.0176571640        0.6993974131       -0.2891135914
 C          3.3444506172       -0.4335492615       -0.1281196936
 C          1.8991931521       -0.5722333829       -0.0033118054
 C          1.3456579795       -1.8386202852        0.2153861300
 C         -0.0142782456       -2.0103552440        0.3479151569
 C         -0.9091389045       -0.9441353456        0.2274241168
 C         -2.3388529502       -1.2311131890        0.4073798891
 C         -3.2899158258       -1.0364844367       -0.4913296128
 C         -0.3509802628        0.3222924537        0.0183357299
 N         -1.1474268438        1.5234870587       -0.0339449640
 O         -2.2291854413        1.4905983831       -0.5773159633
 O         -0.6622367499        2.5153496583        0.4725881088
 C          1.0227075665        0.5036187497       -0.0775532870
 H          5.0907387306        0.7021305688       -0.3707727377
 H          3.5396985443        1.6621628059       -0.3423542228
 H          3.8891828409       -1.3680628277       -0.0764563747
 H          1.9995659739       -2.6951956582        0.2925286988
 H         -0.4147244719       -2.9959673256        0.5347713484
 H         -2.5721337790       -1.7143399322        1.3494815548
 H         -3.0924773611       -0.5984527251       -1.4532586558
 H         -4.3103917850       -1.3126564045       -0.2885055150
 H          1.3896293034        1.5085470606       -0.2165361610
