  14
        -25.29295716
 C         -3.6321205080        0.9117840373        0.0038137292
 C         -2.8207697970       -0.1441790092       -0.0013455132
 C         -1.3857851446       -0.0399253573        0.0002550071
 C         -0.5768368661       -1.1135803141       -0.0057729653
 C          0.8644766873       -1.1103227787       -0.0056130818
 C          1.6757458915       -0.0579373111       -0.0000366528
 F          1.3376018959        1.2261833609        0.0068733665
 F          3.0039791700       -0.1572418815       -0.0007651224
 H         -4.7032356862        0.8083851772        0.0022030214
 H         -3.2453256127        1.9174908935        0.0095399329
 H         -3.2319670431       -1.1456840584       -0.0071310344
 H         -0.9799920358        0.9608462535        0.0063473505
 H         -1.0217865612       -2.0998371197       -0.0116026256
 H          1.3607088736       -2.0694908932       -0.0108235052
