36
 energy: -61.854156786033 gnorm: 0.000053802929 xtb: 6.4.1 (23d549d)
F        -6.21220537660000   -1.26605005590000   -0.24640574210000
C        -4.88095756170000   -1.36601159480000   -0.22977478200000
F        -4.54889005370000   -2.64683445420000   -0.36427594900000
C        -4.08087555060000   -0.31812899760000   -0.09875375980000
C        -2.62922357700000   -0.27386841150000   -0.06548782360000
C        -2.02119240510000    0.97427320260000    0.05516560380000
C        -0.64033378330000    1.05970110870000    0.08372399520000
C         0.27873160280000    2.15630878810000    0.21378649450000
C         0.11725966940000    3.53043346150000    0.33135634710000
C         1.24426679920000    4.32296693370000    0.41718218740000
C         2.51926206820000    3.76307282520000    0.37246979980000
C         2.70523805810000    2.39885872110000    0.25602429100000
C         1.57606922400000    1.59528956510000    0.19268870670000
N         1.47885663280000    0.22384057260000    0.05258659550000
C         2.55664893380000   -0.67321364770000   -0.00950171690000
C         3.55093090450000   -0.63827251360000    0.96332182750000
C         4.61303221780000   -1.52088903600000    0.89510736700000
C         4.68692260240000   -2.44710136250000   -0.13196536900000
C         3.69489532960000   -2.48598283570000   -1.09765572340000
C         2.63407678440000   -1.60085084660000   -1.04378960090000
C         0.14646796770000   -0.11262015920000   -0.01640281330000
C        -0.45333401340000   -1.36186005570000   -0.11091225480000
C        -1.82954822310000   -1.42737734090000   -0.13820028540000
H        -4.59036793760000    0.63073856250000   -0.00815781970000
H        -2.62185579090000    1.86844531000000    0.12911255650000
H        -0.87048342860000    3.96544099810000    0.35038042190000
H         1.14153157170000    5.39364754320000    0.51137228910000
H         3.38209855240000    4.41028882160000    0.42644224710000
H         3.69710226300000    1.97586512590000    0.20484931660000
H         3.47773400030000    0.07093326190000    1.77426708920000
H         5.38214752370000   -1.49036711700000    1.65251347740000
H         5.51560792460000   -3.13715794030000   -0.17954911930000
H         3.75072811300000   -3.20406636620000   -1.90219376050000
H         1.86953590050000   -1.61341661050000   -1.80620156040000
H         0.13881294410000   -2.26332296750000   -0.15095504220000
H        -2.29662383480000   -2.39508133390000   -0.21251778100000
