  27
        -36.83394572
 C         -3.6436497619       -0.3844214956        0.1969095946
 C         -2.4658135490       -0.7717643435       -0.2740447900
 C         -1.2186716294       -0.0181166564       -0.1753518467
 C         -1.1983755870        1.3655009736       -0.0183891947
 C         -0.0070718705        2.0692609032        0.0629277667
 C         -0.0112602662        3.5626955756        0.1989619367
 C          1.1886450340        1.3727743668       -0.0179355582
 C          1.2174739744       -0.0105216782       -0.1755742283
 C          2.4692739032       -0.7562416047       -0.2758378170
 C          3.6444908632       -0.3627683544        0.1963377332
 C          0.0015308290       -0.7004795833       -0.2629173495
 O          0.0057679203       -2.0775111254       -0.4325375157
 C          0.0148180113       -2.7965460717        0.7805141399
 H         -4.5216937118       -0.9977152948        0.0868141668
 H         -3.7803952138        0.5486246116        0.7175894871
 H         -2.3708685068       -1.7333370324       -0.7620411148
 H         -2.1340837298        1.9028603692        0.0205176571
 H         -0.9017607445        3.9023906734        0.7225164825
 H         -0.0031823425        4.0255877254       -0.7883170169
 H          0.8685553225        3.9057708301        0.7382424250
 H          2.1209584199        1.9160535248        0.0200020837
 H          2.3804389528       -1.7173252508       -0.7659849576
 H          3.7751614857        0.5697959214        0.7194371799
 H          4.5263535127       -0.9703199882        0.0851368464
 H         -0.8764406038       -2.5763351749        1.3798280188
 H          0.9073062014       -2.5648972641        1.3735817997
 H          0.0206957381       -3.8515901722        0.5111594156
  27
        -36.83278165
 C         -3.0543399524       -1.4900484711        0.5178968503
 C         -2.6364742384       -0.3860582432       -0.0869316076
 C         -1.2878093177        0.1758328411       -0.0308274466
 C         -1.1434192724        1.5530999385       -0.2032536993
 C          0.0919748552        2.1755308082       -0.1493908975
 C          0.2171515818        3.6618992765       -0.3010097957
 C          1.2181110921        1.3963433035        0.0685674976
 C          1.1270931859        0.0165492568        0.2201367791
 C          2.3081729307       -0.8129573988        0.4493824527
 C          3.5450142556       -0.5141014823        0.0756583309
 C         -0.1362720885       -0.5921976921        0.1763991097
 O         -0.2195993352       -1.9693027833        0.3185597930
 C         -0.0642206859       -2.6700105975       -0.8950442548
 H         -4.0766519335       -1.8200170820        0.4324124352
 H         -2.3978623887       -2.0944280481        1.1180410561
 H         -3.3419271578        0.2095685982       -0.6557943393
 H         -2.0309873525        2.1481741146       -0.3689454224
 H         -0.6859477521        4.0869762952       -0.7316152394
 H          1.0636122069        3.9143445566       -0.9365554365
 H          0.3812972380        4.1233600511        0.6729451966
 H          2.1859162190        1.8704872682        0.1347553190
 H          2.1087997553       -1.7510230512        0.9514692403
 H          3.7851441527        0.3914103680       -0.4561989395
 H          4.3692742596       -1.1760438053        0.2797180779
 H         -0.1240775577       -3.7287165217       -0.6479744605
 H          0.9061297062       -2.4558499850       -1.3582158550
 H         -0.8612086833       -2.4151057605       -1.6030294245
  27
        -36.83140015
 C         -2.8976374413       -1.3769203262        0.9397180041
 C         -2.5529299732       -0.4829704242        0.0238525090
 C         -1.2112485018        0.0974179117       -0.0958272963
 C         -1.1342987474        1.4848782653       -0.2249952204
 C          0.0727039153        2.1587523139       -0.1966796525
 C          0.1373234907        3.6514977063       -0.3238901233
 C          1.2341888016        1.4186032886       -0.0291808776
 C          1.2125149155        0.0320524489        0.0573210571
 C          2.4351399966       -0.7538438287        0.1872283840
 C          3.6150814261       -0.3026179557        0.5930649226
 C         -0.0253220149       -0.6402311956       -0.0106266243
 O          0.0299377098       -2.0113873753        0.0116204638
 C         -0.8167002081       -2.7430827981       -0.8458345496
 H         -3.9092727935       -1.7354845004        1.0308113760
 H         -2.1818885495       -1.7688365723        1.6437796740
 H         -3.3043786599       -0.0639853406       -0.6351831569
 H         -2.0566517459        2.0414795075       -0.3186166905
 H         -0.8423228285        4.0659556603       -0.5477647678
 H          0.8276705732        3.9369572952       -1.1162615162
 H          0.4953256255        4.0942643693        0.6052582647
 H          2.1830888956        1.9320118958       -0.0017491663
 H          2.3206933344       -1.8015633686       -0.0549934857
 H          3.7787984478        0.7204983185        0.8870211410
 H          4.4698585961       -0.9538231528        0.6592900006
 H         -0.2223468448       -3.5734633703       -1.2338019616
 H         -1.1731419201       -2.1335078311       -1.6792047718
 H         -1.6807295560       -3.1426961778       -0.3066894129
  27
        -36.83020927
 C         -2.8972303895       -1.5284627328        0.7166969642
 C         -2.5966974797       -0.3677262113        0.1489430942
 C         -1.2702819633        0.2297718835        0.0270290563
 C         -1.1917966103        1.6146416296       -0.1002352930
 C          0.0165472539        2.2767894924       -0.2424725030
 C          0.0688474497        3.7683756132       -0.3839256811
 C          1.1773334702        1.5232248313       -0.2187090327
 C          1.1537327312        0.1383083614       -0.0661521904
 C          2.4466433859       -0.5356409832        0.0882666921
 C          2.6971193036       -1.4751054511        0.9893250101
 C         -0.0807309235       -0.5230979198        0.0060568706
 O         -0.1968427021       -1.8897889580        0.0188638725
 C          0.5741059905       -2.6391663055       -0.8949389301
 H         -3.9166529199       -1.8748380719        0.7663505471
 H         -2.1480228808       -2.1642363118        1.1511152821
 H         -3.3962060006        0.2502115940       -0.2441488364
 H         -2.1099931626        2.1854904251       -0.0970856674
 H         -0.8396052603        4.1452869128       -0.8477457535
 H          0.9241534565        4.0708760967       -0.9837513725
 H          0.1646815926        4.2329117228        0.5980165183
 H          2.1365294288        2.0166225914       -0.2943024326
 H          3.2488369665       -0.1528038354       -0.5317510297
 H          1.9314128898       -1.8386073747        1.6547101075
 H          3.6791705048       -1.9021368602        1.1055914818
 H         -0.0886949340       -3.4006881358       -1.3122903237
 H          1.4137307894       -3.1294601971       -0.3931093246
 H          0.9623471878       -2.0167197081       -1.7038425263
