20
 energy: -38.948765006675 gnorm: 0.000109855126 xtb: 6.4.1 (23d549d)
C        -0.01233448470000    3.84576229680000   -0.05389456650000
C        -1.00339682590000    2.96725752520000    0.03524688110000
C        -0.88206360490000    1.51287761660000    0.02299888300000
C        -2.05009970900000    0.74835012010000    0.01461093230000
C        -1.97084582320000   -0.63213392150000   -0.00022965720000
Cl       -3.42544507810000   -1.56897126290000   -0.01271543640000
C        -0.74933907140000   -1.27893897930000   -0.00410086030000
C         0.42935649330000   -0.52871047710000    0.00760800040000
C         1.68959675660000   -1.25709114650000    0.00521890290000
C         2.92268589490000   -0.77274207790000    0.00016001200000
F         3.30307231490000    0.49849513080000   -0.00381604970000
F         4.00574876370000   -1.54495964000000   -0.00261857650000
C         0.34929620350000    0.86110080040000    0.02198241680000
H        -0.20506010200000    4.90459329460000   -0.03851177710000
H         1.02025237010000    3.55774743270000   -0.14850089270000
H        -2.02013696050000    3.33000650100000    0.11833033900000
H        -3.01518047960000    1.23112716340000    0.01727957410000
H        -0.71020919670000   -2.35670137880000   -0.01473556670000
H         1.62228134600000   -2.33528022150000    0.00572893400000
H         1.25048442610000    1.44823276020000    0.03787840740000
