  22
        -29.45432324
 C         -2.9249241147       -1.4740748320       -0.0016159681
 O         -2.3655552746       -0.1850911321        0.0009338972
 C         -1.0049038069       -0.0641177384        0.0006578235
 C         -0.1136415128       -1.1307377967        0.0005349231
 C          1.2542122269       -0.8960940552        0.0001182432
 C          2.2243920147       -2.0401300582       -0.0003189584
 C          1.7246253286        0.4093276698       -0.0002166388
 C          0.8475327754        1.4845174364        0.0000200207
 C          1.3513653233        2.8967919812       -0.0002387782
 C         -0.5157128879        1.2388647706        0.0005183187
 H         -4.0041547056       -1.3276953118       -0.0029302801
 H         -2.6393295226       -2.0399749203        0.8915818955
 H         -2.6367694359       -2.0374495449       -0.8955741475
 H         -0.4683898489       -2.1498659204        0.0008037788
 H          1.7058712138       -2.9955467810        0.0033294618
 H          2.8678307818       -1.9908524473        0.8772553484
 H          2.8622723709       -1.9946967164       -0.8821847803
 H          2.7906317459        0.5867448141       -0.0006635176
 H          2.4379909843        2.9228341025       -0.0032526847
 H          0.9924840864        3.4267743911        0.8809154994
 H          0.9874703589        3.4283063483       -0.8783871634
 H         -1.2240670697        2.0526708290        0.0007291006
