  32
        -39.10017577
 C         -2.6551499721        2.6625019441       -0.2451883634
 C         -2.4386538888        1.4666554054        0.2857432762
 C         -1.2037088021        0.6973182663        0.1337266790
 C          0.0176255039        1.3655632421        0.0769758168
 C          1.2241768836        0.7027138217       -0.0558315987
 C          2.5437660915        1.4331456523       -0.0920728634
 C          2.4723695964        2.9365848833        0.1458294870
 C          1.2043012433       -0.6980365169       -0.1300382670
 C          2.4394809181       -1.4678192483       -0.2777483847
 C          2.6544311159       -2.6624195198        0.2566255648
 C         -0.0171527578       -1.3662172090       -0.0742806728
 C         -1.2237629075       -0.7032933613        0.0571610806
 C         -2.5436305382       -1.4334301722        0.0896446394
 C         -2.4737978587       -2.9337722306       -0.1675816189
 H         -3.5806391860        3.1911942044       -0.0914231423
 H         -1.9262019376        3.1526902154       -0.8688534106
 H         -3.2182614894        1.0032140405        0.8766050917
 H          0.0029130322        2.4397761289        0.1634228272
 H          3.0088290330        1.2584334860       -1.0684007697
 H          3.2017920864        0.9893790075        0.6611155578
 H          1.8952535114        3.4299354410       -0.6328975726
 H          3.4772443792        3.3542292926        0.1355030762
 H          2.0236113142        3.1562502947        1.1119115560
 H          3.2208583814       -1.0058145592       -0.8673514278
 H          1.9238895531       -3.1507815089        0.8798874378
 H          3.5801476483       -3.1917153182        0.1064512966
 H         -0.0024328625       -2.4404693494       -0.1603121605
 H         -3.2039850397       -0.9802320416       -0.6557831707
 H         -3.0051463663       -1.2704750528        1.0697142273
 H         -2.0230684070       -3.1409840688       -1.1355167656
 H         -3.4792274628       -3.3502281109       -0.1650724892
 H         -1.8990872216       -3.4383835777        0.6056690404
