27
 energy: -49.340336734890 gnorm: 0.000025210101 xtb: 6.5.0 (unknown)
C           -4.05229215930000        1.39686401550000       -0.02179917540000
C           -2.83273724860000        1.43533729220000        0.49708581550000
C           -1.78106487520000        0.44836670600000        0.25738774690000
C           -2.08243168490000       -0.87805010700000       -0.03942436020000
C           -1.06427067360000       -1.79596809980000       -0.22056199810000
Cl          -1.45930674100000       -3.43859510640000       -0.58451194280000
C            0.26423492330000       -1.43091376590000       -0.10182512150000
C            0.59399583650000       -0.10821888900000        0.19127615690000
C            1.96328066420000        0.35667650580000        0.34377836300000
C            3.08678763850000       -0.29854746230000        0.09717948850000
F            3.22902785850000       -1.53761582500000       -0.35627399320000
F            4.29257195190000        0.23672789240000        0.27161098400000
C           -0.43671010330000        0.83110732140000        0.36717840830000
O           -0.11015502240000        2.13467304440000        0.66475447140000
C           -0.20102174330000        3.03526858370000       -0.43445437400000
C            0.09527091060000        4.43457841780000        0.07603906020000
H           -4.78191159380000        2.15578450850000        0.20204304230000
H           -4.36581888400000        0.62014817620000       -0.69884952140000
H           -2.54387577900000        2.25101962430000        1.14735063220000
H           -3.11080208300000       -1.19468784010000       -0.10325866660000
H            1.03247185300000       -2.17414544710000       -0.23150451060000
H            2.07385318910000        1.36882380150000        0.70534855510000
H           -1.20555691370000        2.98915660180000       -0.87683151630000
H            0.52711672390000        2.74380708350000       -1.20599479350000
H           -0.62769424130000        4.71426285430000        0.83733234930000
H            0.04249093220000        5.14404661670000       -0.74458671090000
H            1.08878031420000        4.46950698270000        0.51458101700000
