  42
        -59.77266748
 C         -2.9233222400        4.1973340904       -4.5363654679
 C         -2.4699998106        4.3879142538       -3.3037477365
 C         -1.7713230943        3.4146716625       -2.4707826804
 C         -1.2751781027        3.8233158124       -1.2330096594
 C         -0.5970059921        2.9438528449       -0.3967260578
 C         -0.1068826881        3.4315157801        0.8882302864
 C          0.4288221501        2.7107404246        1.8658563713
 C         -0.4086765700        1.6239512850       -0.8103240330
 C         -0.9006344525        1.1975592457       -2.0355335695
 O         -0.7642327039       -0.0615527119       -2.5455921268
 C         -0.1688759364       -1.0714059268       -1.7611671111
 C         -1.1150057198       -1.6052927438       -0.6811894334
 C         -0.4867446383       -2.7128017200        0.1633507788
 C          0.5885057579       -2.2027269174        1.1222767675
 C          1.1271733724       -3.3255738828        2.0065538723
 C          2.2142044835       -2.8182747204        2.9625450409
 C          2.7351651973       -3.9557886149        3.8201353555
 O          2.4831123217       -4.0949299569        4.9799465548
 O          3.5088062184       -4.8454513517        3.1698855743
 C         -1.5790989907        2.0941593547       -2.8583967362
 H         -3.4266065576        4.9820506692       -5.0748894006
 H         -2.8119341203        3.2636549715       -5.0599064035
 H         -2.6083187429        5.3567952457       -2.8389854437
 H         -1.4225225260        4.8462144578       -0.9160169743
 H         -0.2190339396        4.4992788588        1.0318299481
 H          0.5608233231        1.6438176796        1.8040238973
 H          0.7562693140        3.1684119560        2.7834552966
 H          0.1312560405        0.9507172719       -0.1663294377
 H          0.7724433486       -0.7138552189       -1.3274164904
 H          0.0646783532       -1.8699289555       -2.4718932794
 H         -2.0057299837       -1.9904758028       -1.1813613164
 H         -1.4329328485       -0.7845334246       -0.0350240032
 H         -0.0583147091       -3.4712540629       -0.4961430359
 H         -1.2743807090       -3.1911574425        0.7491051952
 H          0.1640736570       -1.4212499764        1.7562429861
 H          1.4157801458       -1.7668556007        0.5579658311
 H          1.5238735733       -4.1217356928        1.3698396844
 H          0.3106174120       -3.7500303559        2.5937933184
 H          1.7971339097       -2.0575098311        3.6226182842
 H          3.0382033948       -2.3768334945        2.3946778002
 H          3.6356943538       -4.6139116301        2.2405377721
 H         -1.9466038185        1.7260357606       -3.8017538627
