  23
        -34.45623040
 C         -4.1626511782        0.0506639992        0.1099177799
 C         -3.1201905402       -0.7533169916       -0.0578410868
 C         -1.7131773013       -0.3707437898       -0.0393261206
 C         -0.7276827697       -1.3884176764       -0.0281928613
 C          0.6222941462       -1.1214756130       -0.0044346485
 C          1.5845669090       -2.2099964560        0.0113655413
 C          2.9045153933       -2.0641783341        0.0331853861
 C          1.0154770801        0.2405081044        0.0015889373
 N          2.2118485977        0.7986153145        0.0183945464
 C          2.0049798022        2.1296751436        0.0104303056
 C          0.6651075959        2.4216900894       -0.0128449393
 N          0.0219077376        1.2220249151       -0.0175632233
 C         -1.2980379778        0.9365240686       -0.0371756161
 H         -5.1693128070       -0.3286789356        0.0822927908
 H         -4.0633997782        1.1077810697        0.2867262309
 H         -3.2922995634       -1.8108525691       -0.2133958781
 H         -1.0573281402       -2.4174313567       -0.0339697035
 H          1.1420009703       -3.1992187259        0.0044883819
 H          3.3503686362       -1.0851622620        0.0401812137
 H          3.5609890965       -2.9179751152        0.0445702968
 H          2.8327492070        2.8113882100        0.0214104665
 H          0.1414081970        3.3552138059       -0.0248820264
 H         -1.9748870877        1.7760636764       -0.0601548050
