  26
        -32.77080928
 C          3.6937778666        1.1255570248       -0.4187337518
 C          2.8984605513        0.2237334748        0.1385516570
 C          1.4347186713        0.2988924681        0.1334392339
 C          0.8184275858        1.5342383410        0.3214231071
 C         -0.5529489355        1.6330007834        0.3605521200
 C         -1.3582448015        0.5040842017        0.2136500312
 C         -2.8088751703        0.7212549371        0.2270056688
 C         -3.6765487724        0.2151957434       -0.6371602969
 C         -0.7535454931       -0.7486185732        0.0580413508
 C         -1.5767490431       -2.0040490168        0.0173446967
 C          0.6395886311       -0.8439639982       -0.0091993147
 C          1.2811952411       -2.1799321824       -0.2608234981
 H          4.7666200001        1.0448617638       -0.3697069134
 H          3.3032944102        1.9709568880       -0.9607760757
 H          3.3322096801       -0.6229742551        0.6553624964
 H          1.4285413749        2.4144430290        0.4590901509
 H         -1.0205687400        2.5976997346        0.4987909489
 H         -3.1554690789        1.4180377617        0.9818287151
 H         -3.3731523952       -0.4368536270       -1.4384889251
 H         -4.7255333781        0.4561112633       -0.5901878432
 H         -2.5817782684       -1.8168492742        0.3844786088
 H         -1.1206950742       -2.7746321759        0.6361460071
 H         -1.6509451471       -2.3911588259       -0.9994011976
 H          0.6955018523       -2.7611809827       -0.9689065035
 H          1.3544959902       -2.7520882534        0.6655266670
 H          2.2796666957       -2.0592332201       -0.6708680037
