  27
        -49.33733414
 C         -3.8002878545       -1.1364170854       -0.6242773276
 C         -2.4940508496       -1.1049781134       -0.8499860766
 C         -1.5693841720       -0.1031943282       -0.3215938411
 C         -1.9859658850        1.1966082523       -0.0511405454
 C         -1.0819643162        2.1335974298        0.4153069442
 Cl        -1.6213566169        3.7389008618        0.7622275621
 C          0.2495430528        1.8101083659        0.5978348025
 C          0.6935914107        0.5210076847        0.3140451671
 C          2.1052499811        0.1988465181        0.5153181090
 C          2.8488197381       -0.5527428051       -0.2800597092
 F          2.5168681020       -1.0942070223       -1.4364337047
 F          4.1300985996       -0.8220614402       -0.0266625653
 C         -0.2213747151       -0.4448059412       -0.1242354241
 O          0.2181798272       -1.7246061552       -0.3478174817
 C         -0.1732455147       -2.6814023048        0.6293198380
 C          0.2556635592       -4.0529308045        0.1384559121
 H         -4.4262608548       -1.8994190307       -1.0536574403
 H         -4.2926185377       -0.4159182076        0.0071614861
 H         -2.0283816508       -1.8658690627       -1.4632174022
 H         -3.0122449665        1.4777870407       -0.2237663016
 H          0.9478154151        2.5548067245        0.9457583126
 H          2.5944807269        0.6214189126        1.3800680226
 H         -1.2600991951       -2.6459812060        0.7849194786
 H          0.3180653004       -2.4435054727        1.5851273633
 H         -0.2449363600       -4.2870913525       -0.7968646116
 H          0.0029178474       -4.8061986298        0.8790438424
 H          1.3280921896       -4.0641510145       -0.0341526896
