  20
        -39.12423490
 C         -4.5472634895       -0.3312169008       -0.1665365115
 C         -3.3162387810       -0.7707391040        0.0615777489
 C         -2.1023849314        0.0390310723        0.0433709968
 C         -2.1081282843        1.4347283776        0.0452859392
 C         -0.9259078079        2.1494309868        0.0293944637
 C          0.2954367950        1.5018186644        0.0123915026
 C          0.3556686027        0.1071140634        0.0150284391
 C          1.5914369443       -0.6591524513        0.0007086564
 C          2.8344846958       -0.2026100736       -0.0193200916
 F          3.2417363270        1.0608390249       -0.0300918612
 F          3.8998424295       -0.9979653266       -0.0319554443
 C         -0.8564826249       -0.5870209172        0.0337682971
 F         -0.8153905708       -1.9388913130        0.0354204745
 H         -5.3901394641       -0.9994728333       -0.1367350657
 H         -4.7674416674        0.6964472479       -0.3999145145
 H         -3.1584854849       -1.8215095615        0.2652428775
 H         -3.0495406884        1.9592026808        0.0711556638
 H         -0.9536199111        3.2283960051        0.0328213667
 H          1.2034807996        2.0803579340        0.0000272889
 H          1.4929327576       -1.7351138844        0.0058997886
  20
        -39.12074800
 C         -4.1606934621       -0.7602274921       -0.2950382286
 C         -2.8416430992       -0.8804355328       -0.3737853504
 C         -1.8705543109        0.1627162165       -0.0604083069
 C         -2.2054790495        1.5113482460        0.0608083764
 C         -1.2491485721        2.4563988048        0.3801106129
 C          0.0682472461        2.0844103082        0.5699392329
 C          0.4574026335        0.7533441868        0.4248562058
 C          1.8603620191        0.3889793680        0.6129272864
 C          2.5335173475       -0.5078052304       -0.0897604723
 F          2.1010097521       -1.2138446323       -1.1195371131
 F          3.8163640233       -0.7869337744        0.1267957417
 C         -0.5298050644       -0.1816685643        0.1247604644
 F         -0.1881229299       -1.4847209075        0.0633135227
 H         -4.8096324932       -1.5820078886       -0.5428975736
 H         -4.6463269066        0.1454304339        0.0263652168
 H         -2.4110362017       -1.8261819220       -0.6744979449
 H         -3.2266068213        1.8174169660       -0.0999020993
 H         -1.5316854689        3.4932411267        0.4805471858
 H          0.8145361895        2.8243553989        0.8153320189
 H          2.4108590752        0.9208689908        1.3739853179
  20
        -39.12069643
 C         -4.1149994581       -0.7473770664        0.5536328535
 C         -2.8530622126       -0.9104430928        0.1767604243
 C         -1.8761664886        0.1533620457       -0.0296924076
 C         -2.2113222196        1.5065441838       -0.0837803521
 C         -1.2474311371        2.4712348453       -0.3064223100
 C          0.0781136375        2.1144276799       -0.4664318436
 C          0.4654780390        0.7769349648       -0.3960022835
 C          1.8756096002        0.4266542774       -0.5561321521
 C          2.5255359200       -0.5122880592        0.1125090680
 F          2.0578314963       -1.2831444657        1.0783289279
 F          3.8166187803       -0.7751492996       -0.0734856458
 C         -0.5293081808       -0.1770437035       -0.1980414709
 F         -0.1833102232       -1.4804007594       -0.2094069479
 H         -4.7675964016       -1.5924550688        0.6872778954
 H         -4.5470304379        0.2184209502        0.7529117633
 H         -2.4743278499       -1.9109371950        0.0160867829
 H         -3.2422673274        1.7999931313        0.0300197402
 H         -1.5312459614        3.5112452698       -0.3591523207
 H          0.8303401571        2.8694162796       -0.6361322658
 H          2.4518796704        1.0070243328       -1.2606140961
  20
        -39.11978629
 C         -3.0365692177       -1.7079978276       -0.7300994529
 C         -3.0784077888       -0.4944553732       -0.1946995327
 C         -1.9437903864        0.3869700965        0.0665904028
 C         -2.1728834775        1.7579820429        0.2020844687
 C         -1.1415319042        2.6415654375        0.4546514822
 C          0.1546787685        2.1791844118        0.5760745749
 C          0.4351783762        0.8207775564        0.4394606612
 C          1.8156455313        0.3570364757        0.5703452703
 C          2.3876910065       -0.5939617074       -0.1502439231
 F          1.8546731501       -1.2774500596       -1.1482647814
 F          3.6557208199       -0.9644877325        0.0081217401
 C         -0.6261147634       -0.0520055232        0.2047937426
 F         -0.3588856649       -1.3724836877        0.1845161090
 H         -3.9410663458       -2.2683584673       -0.8959908677
 H         -2.1214028376       -2.1863289848       -1.0296516050
 H         -4.0375977024       -0.0580992695        0.0566253635
 H         -3.1837332712        2.1254833140        0.1061551881
 H         -1.3487136137        3.6953206974        0.5610009389
 H          0.9648352385        2.8651961545        0.7699031531
 H          2.4384871690        0.8558885665        1.2971843879
