  26
        -39.88346139
 C         -4.4744181103        0.6551223243       -0.4518667404
 C         -3.6975738988       -0.4166012404       -0.5514554042
 C         -2.2834516069       -0.5048383283       -0.2064501392
 C         -1.6573328928       -1.7516049786       -0.2311313094
 C         -0.3224608970       -1.8747287860        0.0966833627
 C          0.4326237576       -0.7695675905        0.4610834154
 C          1.8938326965       -0.9320581713        0.7730052277
 C          2.7763286221       -0.2481662814       -0.2650928864
 O          2.3899211157        0.2435743752       -1.2804914525
 O          4.0904715903       -0.2512494143        0.0440454648
 C         -0.1725641908        0.4943022896        0.4779932938
 C          0.5859936227        1.6921668644        0.8415946184
 C          0.4108428306        2.8845109756        0.2914726186
 C         -1.5187629343        0.6025149311        0.1484290892
 H         -5.5136609391        0.6203740585       -0.7307721814
 H         -4.1170439088        1.6032714059       -0.0884907612
 H         -4.1278157288       -1.3426350220       -0.9140589896
 H         -2.2239031315       -2.6291570253       -0.5079441382
 H          0.1433147252       -2.8502107312        0.0664950659
 H          2.1552369691       -1.9949871696        0.7808530980
 H          2.1298583343       -0.5187608044        1.7595047732
 H          4.2794793155       -0.6866867994        0.8854459622
 H          1.3398795259        1.5712943681        1.6098117809
 H         -0.2966630305        3.0455800716       -0.5037188111
 H          0.9928323033        3.7381456054        0.5940458214
 H         -1.9753081351        1.5789346049        0.1800767810
