  23
        -36.71767069
 C         -3.8138869931        1.4332150314        0.1742927824
 C         -3.3706191789        0.1883842580        0.0417566021
 C         -1.9808460704       -0.2419061756       -0.0317966650
 C         -1.6945107440       -1.6013223025       -0.1823503631
 C         -0.3943604448       -2.0522881743       -0.2524151393
 C          0.6857036867       -1.1730460472       -0.1675854648
 C          2.0435983647       -1.7079081788       -0.1675864433
 C          3.0492679169       -1.2412039065        0.5588341538
 C          0.4072122084        0.1951365969       -0.0405498447
 C          1.4861750585        1.2286120486       -0.0940142111
 O          2.2956092230        1.3175697011       -0.9711007966
 O          1.4526463820        2.1303546069        0.9138846511
 C         -0.9051692781        0.6424089046        0.0328688547
 H         -4.8676336915        1.6472228145        0.2192997935
 H         -3.1607675518        2.2865755585        0.2387749287
 H         -4.0903219827       -0.6186483056       -0.0208105442
 H         -2.5091839922       -2.3084709427       -0.2466496197
 H         -0.1989186675       -3.1093814439       -0.3604355423
 H          2.1859230050       -2.5908443355       -0.7775651369
 H          2.9458272174       -0.3930827631        1.2148771960
 H          4.0236503436       -1.6966442200        0.5270294360
 H          0.7409306304        1.9454383547        1.5416417099
 H         -1.0931715966        1.7045128014        0.1039477693
