23
 energy: -36.717670688988 gnorm: 0.000040516340 xtb: 6.4.1 (23d549d)
C        -3.81388699310000    1.43321503140000    0.17429278240000
C        -3.37061917890000    0.18838425800000    0.04175660210000
C        -1.98084607040000   -0.24190617560000   -0.03179666500000
C        -1.69451074400000   -1.60132230250000   -0.18235036310000
C        -0.39436044480000   -2.05228817430000   -0.25241513930000
C         0.68570368670000   -1.17304604720000   -0.16758546480000
C         2.04359836470000   -1.70790817880000   -0.16758644330000
C         3.04926791690000   -1.24120390650000    0.55883415380000
C         0.40721220840000    0.19513659690000   -0.04054984470000
C         1.48617505850000    1.22861204860000   -0.09401421110000
O         2.29560922300000    1.31756970110000   -0.97110079660000
O         1.45264638200000    2.13035460690000    0.91388465110000
C        -0.90516927810000    0.64240890460000    0.03286885470000
H        -4.86763369150000    1.64722281450000    0.21929979350000
H        -3.16076755180000    2.28657555850000    0.23877492870000
H        -4.09032198270000   -0.61864830560000   -0.02081054420000
H        -2.50918399220000   -2.30847094270000   -0.24664961970000
H        -0.19891866750000   -3.10938144390000   -0.36043554230000
H         2.18592300500000   -2.59084433550000   -0.77756513690000
H         2.94582721740000   -0.39308276310000    1.21487719600000
H         4.02365034360000   -1.69664422000000    0.52702943600000
H         0.74093063040000    1.94543835470000    1.54164170990000
H        -1.09317159660000    1.70451280140000    0.10394776930000
