34
 energy: -48.198496563444 gnorm: 0.000078698426 xtb: 6.4.1 (23d549d)
C         5.86869647110000   -0.65620769080000   -0.16677609810000
C         4.99796774940000    0.34517981910000   -0.21106510940000
C         3.54475005610000    0.24707426900000   -0.16889117970000
C         2.78505528820000    1.40846748090000   -0.32441570460000
C         1.40680749070000    1.35457484830000   -0.28761572710000
C         0.73149078720000    0.15314008470000   -0.10049603440000
C        -0.74265394380000    0.12450055050000   -0.07174598690000
C        -1.44578339600000   -0.69876715770000   -0.94614769350000
C        -2.82442679450000   -0.74524708580000   -0.95114886220000
C        -3.55715722640000    0.03942082410000   -0.05887710630000
C        -5.01316750290000    0.03487715320000   -0.00294841680000
C        -5.83597648170000   -0.70217628270000   -0.73960533250000
C        -2.85798571970000    0.86082536150000    0.82107719510000
C        -1.46803085860000    0.92464023060000    0.82952815360000
N        -0.82643018720000    1.79376308670000    1.68916600060000
C         1.48466047100000   -1.02530082910000    0.05833020120000
N         0.86505785210000   -2.25031151670000    0.20677271090000
C         2.87367247310000   -0.95574467840000    0.02749602680000
H         6.92972106170000   -0.47798993710000   -0.20796113710000
H         5.56922344230000   -1.68762967470000   -0.09364328350000
H         5.37344279910000    1.35824354640000   -0.29599134950000
H         3.28123773890000    2.35550928300000   -0.47934626580000
H         0.82829002570000    2.25700715220000   -0.42325562060000
H        -0.88612925370000   -1.30005177230000   -1.64821843650000
H        -3.32977389860000   -1.38991686960000   -1.65203970710000
H        -5.43588518870000    0.71479925420000    0.72777298570000
H        -5.48762380230000   -1.39847818520000   -1.48280946440000
H        -6.90428747270000   -0.63367009160000   -0.62414502440000
H        -3.40611341380000    1.47437365510000    1.52419463610000
H        -1.35508466020000    2.09524605650000    2.49125510210000
H         0.14872224300000    1.60864568870000    1.86380315710000
H        -0.09718019580000   -2.22986797020000    0.50563006740000
H         1.42349567200000   -2.98348006010000    0.61212653340000
H         3.43178300170000   -1.87023853820000    0.16387760160000
