  40
        -69.08649836
 C          0.8936489173        4.6504607765       -0.3260097643
 O          2.2154368312        4.1914937491       -0.1927245225
 C          2.4351225481        2.8495357644       -0.0978103497
 C          3.7834666758        2.4783016914        0.0323797335
 C          4.1556495851        1.1576673263        0.1181958872
 C          1.4341896833        1.8893123211       -0.1256985863
 C          1.8150005288        0.5586612819       -0.0108279685
 C          3.1689751758        0.1783239351        0.0927934913
 C          3.1915844664       -1.2565465330        0.1344284947
 C          4.2101233996       -2.1928616567        0.2509397929
 C          3.8767256892       -3.5324456233        0.2861498806
 C          2.5472642885       -3.9414423482        0.2242767163
 C          1.5160493312       -3.0276468246        0.1083418042
 C          1.8469942714       -1.6829203401        0.0444673891
 N          1.0227008100       -0.5733880090       -0.0410537497
 C         -0.3695811192       -0.5963646307       -0.1409885925
 C         -0.9976130990       -1.4185456842       -1.0753493722
 C         -2.3723942116       -1.4369276535       -1.1677007230
 C         -3.1648629508       -0.6337155677       -0.3426462027
 C         -4.6070166308       -0.7011662642       -0.5012529123
 C         -5.5414405348       -0.0142590940        0.1403030423
 F         -5.3787675242        0.9056843198        1.0844656232
 F         -6.8439162412       -0.1634435640       -0.0952684342
 C         -2.5270749983        0.1876355963        0.5903450754
 C         -1.1519709571        0.2022218500        0.6919561330
 H          0.9620423980        5.7359206937       -0.3780788397
 H          0.2800700722        4.3687212977        0.5362578990
 H          0.4260943813        4.2740356314       -1.2420031990
 H          4.5173453723        3.2678313564        0.0507777354
 H          5.1962007063        0.8844526370        0.2002001366
 H          0.3958748417        2.1515492197       -0.2480649184
 H          5.2393172264       -1.8743951686        0.3177219156
 H          4.6541589086       -4.2767435209        0.3736209882
 H          2.3150777576       -4.9950857382        0.2720043845
 H          0.4877196622       -3.3554732145        0.0825057653
 H         -0.3989296601       -2.0261209412       -1.7367741870
 H         -2.8463150927       -2.0757234029       -1.8984932189
 H         -4.9783661826       -1.3982869659       -1.2386887650
 H         -3.1049722463        0.8117320540        1.2518305043
 H         -0.6723944133        0.8195932266        1.4363638309
  40
        -69.08637382
 C          1.2966197160        4.7859742975       -0.6707677804
 O          2.5776452070        4.2262567224       -0.5281970456
 C          2.6862304949        2.8785173310       -0.3517870612
 C          4.0004094094        2.4041748147       -0.2094722267
 C          4.2597656114        1.0698215415       -0.0031827773
 C          1.6082793632        2.0063648405       -0.3076083853
 C          1.8791550061        0.6562829731       -0.1264734406
 C          3.1945213304        0.1776913286        0.0456788318
 C          3.0921085478       -1.2375395309        0.2644074533
 C          4.0275965320       -2.2421131715        0.4729528708
 C          3.5815827426       -3.5397189698        0.6281759850
 C          2.2244504045       -3.8436021095        0.5607242010
 C          1.2745074059       -2.8605769935        0.3532814317
 C          1.7148405549       -1.5524126063        0.2240680368
 N          0.9908960300       -0.3964554017       -0.0165629541
 C         -0.3976682352       -0.3130497572       -0.1354395975
 C         -0.9755901298        0.3567694617       -1.2129797150
 C         -2.3467527610        0.4375655899       -1.3233570333
 C         -3.1856452104       -0.1507895449       -0.3725576524
 C         -4.6210987311       -0.0307606312       -0.5583512320
 C         -5.5954511854       -0.5128397435        0.1998972337
 F         -5.4892115616       -1.2223284445        1.3172170561
 F         -6.8863317866       -0.3365053552       -0.0770821059
 C         -2.5978761425       -0.8226649056        0.7021548543
 C         -1.2260759569       -0.8991780498        0.8202545879
 H          1.4541941949        5.8560745597       -0.7960008592
 H          0.6795906350        4.6136535381        0.2174984030
 H          0.7802720282        4.3919012531       -1.5526840364
 H          4.7984504402        3.1275703096       -0.2553105969
 H          5.2727565372        0.7205156193        0.1231097489
 H          0.5908123506        2.3522948263       -0.3917080332
 H          5.0809224032       -2.0086846524        0.5070822330
 H          4.2926732952       -4.3351836018        0.7943808929
 H          1.9060067502       -4.8698213872        0.6690157295
 H          0.2267007320       -3.1107629243        0.2827557235
 H         -0.3414591346        0.7919129569       -1.9705687413
 H         -2.7818589669        0.9548892520       -2.1659884237
 H         -4.9498554589        0.5203244564       -1.4278536428
 H         -3.2118335512       -1.2822093382        1.4589377927
 H         -0.7843507277       -1.4010470708        1.6675972160
  40
        -69.08608029
 C          2.7699058163        5.2244635084       -0.2338073458
 O          1.8451069610        4.1655587464       -0.2393446176
 C          2.3076088757        2.8867586321       -0.1251127609
 C          3.6574555368        2.5438004481        0.0012250310
 C          4.0438671767        1.2206082269        0.0932586635
 C          1.3225842957        1.9021043890       -0.1449944516
 C          1.7136047000        0.5816101299       -0.0268209545
 C          3.0787221276        0.2265609995        0.0763990819
 C          3.1277266272       -1.2078479809        0.1285275161
 C          4.1636805167       -2.1236043601        0.2503342000
 C          3.8557196086       -3.4691716678        0.2979982968
 C          2.5340269213       -3.9026430445        0.2434010029
 C          1.4857411887       -3.0089307971        0.1220396943
 C          1.7906807468       -1.6586313223        0.0453700085
 N          0.9446652859       -0.5663926924       -0.0477847764
 C         -0.4472277941       -0.6181296688       -0.1495016325
 C         -1.0559535714       -1.4670908165       -1.0724218556
 C         -2.4299678567       -1.5186223638       -1.1637779173
 C         -3.2402877773       -0.7245992509       -0.3473924608
 C         -4.6805987441       -0.8308245462       -0.5018815138
 C         -5.6322500429       -0.1837206928        0.1554938671
 F         -5.4943389733        0.7206930105        1.1179959060
 F         -6.9309970844       -0.3685629303       -0.0780327385
 C         -2.6211500501        0.1266803387        0.5711954127
 C         -1.2466810314        0.1764264630        0.6704412939
 H          2.1770584475        6.1320480889       -0.3378591165
 H          3.4701881182        5.1534707095       -1.0725497632
 H          3.3304807213        5.2663231947        0.7058697010
 H          4.4152806645        3.3104132297        0.0184584660
 H          5.0897809882        0.9664713429        0.1736589982
 H          0.2927170347        2.1965920130       -0.2639314494
 H          5.1870755700       -1.7856751786        0.3118159273
 H          4.6471973374       -4.1979727270        0.3898888328
 H          2.3212144629       -4.9598766681        0.3013239050
 H          0.4637489196       -3.3560796151        0.1024132367
 H         -0.4439816129       -2.0689899370       -1.7269229232
 H         -2.8891602978       -2.1777020683       -1.8859953291
 H         -5.0345992233       -1.5266813816       -1.2490456278
 H         -3.2128067872        0.7493712832        1.2216018388
 H         -0.7812541055        0.8212137509        1.3999460327
