  21
        -30.23799840
 C          3.2941177982        0.7817342250        0.0000037441
 C          1.8465160572        0.3893930297       -0.0000061376
 C          1.4684772892       -0.9740343651       -0.0000082687
 C          0.1553526219       -1.3620617455       -0.0000044449
 C         -0.2821591816       -2.7890916178        0.0000025520
 C         -0.8279980029       -0.3526302712        0.0000018973
 N         -2.1475653054       -0.4509861602        0.0000155547
 C         -2.6068215357        0.8129505533       -0.0000245725
 C         -1.5736788460        1.7198450305        0.0000139340
 N         -0.4317006949        0.9823705271        0.0000012677
 C          0.8736674157        1.3461870467       -0.0000018679
 H          3.9301476010       -0.0989148260        0.0000697001
 H          3.5288489982        1.3785896116        0.8801553129
 H          3.5288842079        1.3784801860       -0.8802129445
 H          2.2448048872       -1.7249157217        0.0000082851
 H          0.5732654082       -3.4594231462       -0.0001030123
 H         -0.8983054996       -2.9848454290       -0.8753917334
 H         -0.8981155621       -2.9848923545        0.8755208664
 H         -3.6605253630        1.0133524180       -0.0000393393
 H         -1.5691460954        2.7904457358        0.0000278837
 H          1.0894731809        2.4044568424        0.0000072474
