  26
        -48.71380944
 C          0.8709690082       -4.1668646746       -0.6590670009
 C          1.3511708582       -3.1534926459        0.0479133428
 C          0.8646596395       -1.7760440360       -0.0457561450
 C         -0.4781280999       -1.5381647253       -0.2112231385
 C         -1.0206521174       -0.2385531945       -0.2646409817
 C         -2.4638017075       -0.0860717189       -0.4255217472
 C         -3.2197993021        0.8460157796        0.1327252966
 F         -2.8447513112        1.7896940278        0.9783563200
 F         -4.5357236029        0.9216645593       -0.0542192237
 C         -0.1481657147        0.8222370973       -0.1769789864
 F         -0.6100675519        2.0834514478       -0.2944622432
 C          1.2424769781        0.6479549484       -0.0169051495
 C          2.1153048863        1.7532835201        0.0636451483
 C          3.4611356908        1.5640854948        0.2034558296
 C          3.9841143541        0.2650668713        0.2581610657
 C          3.1577928995       -0.8233485941        0.1815836616
 C          1.7621923070       -0.6722481273        0.0541454442
 H          1.2498558937       -5.1675018141       -0.5420051810
 H          0.0966373192       -4.0329752168       -1.3957894121
 H          2.1502740831       -3.3286637946        0.7554567016
 H         -1.1605147658       -2.3726483183       -0.2676864214
 H         -2.9718943660       -0.8194355946       -1.0334019153
 H          1.6967970423        2.7469659420        0.0117757537
 H          4.1271771128        2.4112921346        0.2666847116
 H          5.0505996716        0.1267031564        0.3575938775
 H          3.5818973136       -1.8148262073        0.2085076057
