27
 energy: -36.831400149707 gnorm: 0.000108908404 xtb: 6.4.1 (23d549d)
C        -2.89763744130000   -1.37692032620000    0.93971800410000
C        -2.55292997320000   -0.48297042420000    0.02385250900000
C        -1.21124850180000    0.09741791170000   -0.09582729630000
C        -1.13429874740000    1.48487826530000   -0.22499522040000
C         0.07270391530000    2.15875231390000   -0.19667965250000
C         0.13732349070000    3.65149770630000   -0.32389012330000
C         1.23418880160000    1.41860328860000   -0.02918087760000
C         1.21251491550000    0.03205244890000    0.05732105710000
C         2.43513999660000   -0.75384382870000    0.18722838400000
C         3.61508142610000   -0.30261795570000    0.59306492260000
C        -0.02532201490000   -0.64023119560000   -0.01062662430000
O         0.02993770980000   -2.01138737530000    0.01162046380000
C        -0.81670020810000   -2.74308279810000   -0.84583454960000
H        -3.90927279350000   -1.73548450040000    1.03081137600000
H        -2.18188854950000   -1.76883657230000    1.64377967400000
H        -3.30437865990000   -0.06398534060000   -0.63518315690000
H        -2.05665174590000    2.04147950750000   -0.31861669050000
H        -0.84232282850000    4.06595566030000   -0.54776476780000
H         0.82767057320000    3.93695729520000   -1.11626151620000
H         0.49532562550000    4.09426436930000    0.60525826470000
H         2.18308889560000    1.93201189580000   -0.00174916630000
H         2.32069333440000   -1.80156336860000   -0.05499348570000
H         3.77879844780000    0.72049831850000    0.88702114100000
H         4.46985859610000   -0.95382315280000    0.65929000060000
H        -0.22234684480000   -3.57346337030000   -1.23380196160000
H        -1.17314192010000   -2.13350783110000   -1.67920477180000
H        -1.68072955600000   -3.14269617780000   -0.30668941290000
