  29
        -51.51771344
 C         -1.6692737454        4.6736067132        0.1884456629
 C         -0.5578134231        3.9598968607        0.0597633139
 C         -0.4534176012        2.5040686800        0.0598941065
 C         -1.5637482330        1.6649894113        0.0028977591
 C         -1.4362771195        0.2759096259        0.0060583632
 C         -2.6552644406       -0.5173409021       -0.0644708274
 C         -2.7789926044       -1.8351337793       -0.1189401124
 F         -1.8191694634       -2.7498125296       -0.1228452191
 F         -3.9585134879       -2.4493584872       -0.1837145949
 C         -0.1628042886       -0.2881272806        0.0748889962
 C          0.9537652202        0.5368830373        0.1289633525
 C          2.3308611678       -0.0215337949        0.1954236787
 O          3.3311243313        0.6531789893        0.1559151506
 O          2.3323741791       -1.3524854488        0.3191145187
 C          3.6036346230       -1.9988041390        0.3716313954
 C          4.1488282203       -2.2611692376       -1.0248954640
 C          0.8101920258        1.9188869975        0.1145404436
 H         -1.6450354187        5.7495771083        0.1821713408
 H         -2.6412641418        4.2275438568        0.3125889903
 H          0.3893046563        4.4740598715       -0.0427127572
 H         -2.5519661226        2.0946096037       -0.0562672717
 H         -3.5870422642        0.0296381419       -0.0792503215
 H         -0.0230298015       -1.3552616923        0.0843017492
 H          3.4243830015       -2.9336487655        0.9068159868
 H          4.2985070430       -1.3697360140        0.9378911898
 H          3.4362375615       -2.8449097767       -1.6027481040
 H          5.0838364910       -2.8093303995       -0.9540307292
 H          4.3305395976       -1.3184507420       -1.5352756481
 H          1.7006395376        2.5288670875        0.1535024324
