  29
        -51.51752303
 C          0.2097257518        4.0631584890       -0.1171874312
 C         -0.6999087069        3.0966912564       -0.1235732073
 C         -0.4437982282        1.6606977980       -0.0658433088
 C         -1.5343180514        0.7914327873       -0.0321937220
 C         -1.3659368352       -0.5913937612        0.0252262510
 C         -2.4733417965       -1.5353610607        0.0632012099
 C         -3.7734391583       -1.2825506777        0.0513254080
 F         -4.3769822289       -0.1010084093        0.0014789427
 F         -4.7006846583       -2.2359691154        0.0900122780
 C         -0.0703158892       -1.1040028191        0.0474553295
 C          1.0259622258       -0.2507179515        0.0123069979
 C          2.3815844517       -0.8589466719        0.0370519601
 O          2.5885126717       -2.0475082601        0.0880297009
 O          3.3564446806        0.0546631741       -0.0039683391
 C          4.6926515149       -0.4487475704        0.0148707738
 C          5.6478415204        0.7255654486       -0.0812453079
 C          0.8429195445        1.1246504021       -0.0442114454
 H         -0.0781761047        5.0993345714       -0.1615574388
 H          1.2676060785        3.8710701966       -0.0662871887
 H         -1.7484571799        3.3628766240       -0.1719322537
 H         -2.5266361332        1.2133642808       -0.0505282482
 H         -2.2080476142       -2.5816951928        0.1070535453
 H          0.1067139473       -2.1679856631        0.0913839732
 H          4.8212833918       -1.1399967153       -0.8257564493
 H          4.8438965961       -1.0128859057        0.9422554379
 H          5.4753328755        1.2744325306       -1.0032305935
 H          6.6718836742        0.3642560105       -0.0695266439
 H          5.4992684524        1.3993696607        0.7583677533
 H          1.7080970904        1.7655788341       -0.0730906600
