  15
        -20.15815250
 C          2.3895249810        0.6615134201        0.0000250845
 C          0.9015287214        0.5221242569       -0.0000087383
 C         -0.0006479500        1.6170821912       -0.0000210624
 C         -1.3006634310        1.2359944164       -0.0000284205
 S         -1.4657655633       -0.4759437983        0.0000225404
 C          0.2561982317       -0.6803128927        0.0000127277
 C          0.8665480715       -2.0375052387       -0.0000316786
 H          2.6716775173        1.7107851713       -0.0006983582
 H          2.8192702018        0.1830642607       -0.8798777920
 H          2.8191021583        0.1843547918        0.8807194288
 H          0.3174501766        2.6448693212       -0.0000229352
 H         -2.1797280276        1.8488187935       -0.0000418172
 H          0.0954083142       -2.8031204837        0.0010953288
 H          1.4958505386       -2.1729528810        0.8804888039
 H          1.4940012561       -2.1737567876       -0.8817589203
