  37
        -57.03351640
 C         -7.1230494456       -0.3156515977       -0.2314690909
 C         -5.8628215678       -0.7182827043       -0.1319623387
 C         -4.6804058142        0.1341547672       -0.0498616701
 C         -4.7293675022        1.5310029877       -0.0104044552
 C         -3.5419077372        2.2372590387        0.0621826982
 C         -2.3450922814        1.5443669061        0.0911273241
 C         -2.3848153730        0.1495601914        0.0503990069
 C         -1.1442417317       -0.6402989035        0.0737711852
 C         -1.1919349697       -2.0357116872        0.0966246696
 C         -0.0000165886       -2.7380379308        0.1100089036
 C          1.1918931303       -2.0357109492        0.0958692463
 C          1.1441801915       -0.6402977547        0.0730951063
 C          2.3847415972        0.1495687815        0.0492703157
 C          2.3450797661        1.5443338299        0.0914700782
 C          3.5418700964        2.2372356075        0.0617330482
 C          4.7292611657        1.5310266793       -0.0124022052
 C          4.6802798366        0.1341980702       -0.0526391796
 C          5.8625388282       -0.7183105134       -0.1360392219
 C          7.1239186481       -0.3159243461       -0.2209589345
 N          3.5254674739       -0.5253865917       -0.0181555313
 N         -0.0000325432        0.0339357693        0.0659029118
 N         -3.5256206791       -0.5254506778       -0.0152133967
 H         -7.9324837915       -1.0229896722       -0.2907882356
 H         -7.4049824427        0.7233152948       -0.2605972112
 H         -5.6284918551       -1.7740767454       -0.1131694089
 H         -5.6741547770        2.0496857776       -0.0339117647
 H         -3.5509967542        3.3178720861        0.0951782212
 H         -1.3925811274        2.0441805553        0.1445517930
 H         -2.1512532321       -2.5261881070        0.1023302306
 H         -0.0000108417       -3.8188327281        0.1294608751
 H          2.1512148411       -2.5261883729        0.1009830024
 H          1.3926306653        2.0441154019        0.1462883400
 H          3.5509901196        3.3178334976        0.0952218597
 H          5.6739652686        2.0497920908       -0.0372571119
 H          5.6271556757       -1.7740215231       -0.1299925343
 H          7.4071959242        0.7229795003       -0.2353997685
 H          7.9330698378       -1.0234396644       -0.2819780973
