  20
        -39.12180338
 C         -4.3984838658       -1.8398523450        0.0233113949
 C         -3.1212561132       -1.8827142241       -0.3355352605
 C         -2.1375161463       -0.8171333646       -0.1785128100
 C         -2.4716924087        0.4687845915        0.2525270321
 C         -1.5037724384        1.4449103599        0.3706207311
 C         -0.1861204892        1.1426101737        0.0782511780
 F          0.7275354114        2.1282326294        0.1529125282
 C          0.1980527009       -0.1317841981       -0.3371162668
 C          1.5804173067       -0.4860476303       -0.6502440322
 C          2.6572069430       -0.0647919531       -0.0061862908
 F          2.7048868425        0.7085764455        1.0636556579
 F          3.8919788409       -0.4326065714       -0.3385346699
 C         -0.8039001724       -1.0876942428       -0.4767621385
 H         -5.0490851566       -2.6832792045       -0.1303395844
 H         -4.8477499749       -0.9780209656        0.4856620090
 H         -2.7327149859       -2.7889905881       -0.7832650974
 H         -3.4958938208        0.7146663621        0.4808734679
 H         -1.7529553698        2.4471703598        0.6818959851
 H          1.7420328387       -1.1785242671       -1.4624051293
 H         -0.5270603058       -2.0769804302       -0.8118782323
