20
 energy: -39.121803382142 gnorm: 0.000019814244 xtb: 6.4.1 (23d549d)
C        -4.39848386580000   -1.83985234500000    0.02331139490000
C        -3.12125611320000   -1.88271422410000   -0.33553526050000
C        -2.13751614630000   -0.81713336460000   -0.17851281000000
C        -2.47169240870000    0.46878459150000    0.25252703210000
C        -1.50377243840000    1.44491035990000    0.37062073110000
C        -0.18612048920000    1.14261017370000    0.07825117800000
F         0.72753541140000    2.12823262940000    0.15291252820000
C         0.19805270090000   -0.13178419810000   -0.33711626680000
C         1.58041730670000   -0.48604763030000   -0.65024403220000
C         2.65720694300000   -0.06479195310000   -0.00618629080000
F         2.70488684250000    0.70857644550000    1.06365565790000
F         3.89197884090000   -0.43260657140000   -0.33853466990000
C        -0.80390017240000   -1.08769424280000   -0.47676213850000
H        -5.04908515660000   -2.68327920450000   -0.13033958440000
H        -4.84774997490000   -0.97802096560000    0.48566200900000
H        -2.73271498590000   -2.78899058810000   -0.78326509740000
H        -3.49589382080000    0.71466636210000    0.48087346790000
H        -1.75295536980000    2.44717035980000    0.68189598510000
H         1.74203283870000   -1.17852426710000   -1.46240512930000
H        -0.52706030580000   -2.07698043020000   -0.81187823230000
