  26
        -43.34614618
 C          4.1777740486        0.9542218745       -0.0235966483
 O          2.7623232724        1.0226134857        0.0051476919
 C          2.1199942378       -0.1592090589       -0.0008047713
 O          2.7342469302       -1.2114181721       -0.0340784190
 C          0.6623193873       -0.0205680730        0.0213263466
 C          0.0882365977        1.2556022901        0.0241648257
 C         -1.2747769803        1.4423772064        0.0102498998
 C         -1.9101571989        2.7984630548        0.0130400688
 C         -2.0701906212        0.2926014320       -0.0086131961
 F         -3.4140954218        0.4638718190       -0.0284523368
 C         -1.5704859390       -0.9911448060       -0.0064236973
 C         -2.4854546642       -2.1816167913       -0.0175330077
 C         -0.1680503937       -1.1653842008        0.0129422072
 N          0.3582363174       -2.4098765302        0.0665103556
 H          4.5313835187        1.9816107174        0.0088141721
 H          4.5174818527        0.4606321006       -0.9369229748
 H          4.5501154866        0.3924336447        0.8359235254
 H          0.7433448890        2.1116875309        0.0338922832
 H         -1.1511056510        3.5753266703        0.0161415606
 H         -2.5433849596        2.9180740883        0.8915516977
 H         -2.5420271199        2.9228986170       -0.8656993241
 H         -3.5226135582       -1.8593439190       -0.0116619216
 H         -2.3128587597       -2.8040624038        0.8603860092
 H         -2.3217888490       -2.7867321511       -0.9102687761
 H         -0.2211356922       -3.2049474324       -0.1279326642
 H          1.3630279263       -2.4834847705       -0.0179204316
  26
        -43.34107680
 C          4.2292779608       -0.6463458381        0.0741803618
 O          2.8174737164       -0.7959996496        0.0631705763
 C          2.1116722155        0.3611634694       -0.0264518238
 O          2.6773048136        1.4276349358       -0.0860487154
 C          0.6476453271        0.2089018265       -0.0265563832
 C         -0.0603098481        1.4172020037       -0.0523241082
 C         -1.4343334511        1.4728611241       -0.0331612994
 C         -2.1990101222        2.7595597520       -0.0543782025
 C         -2.1052732676        0.2492799848        0.0092833944
 F         -3.4594559220        0.2762753081        0.0324391472
 C         -1.4710569318       -0.9752771851        0.0260036412
 C         -2.2659175842       -2.2497839548        0.0559519732
 C         -0.0589859990       -1.0107737487        0.0075764049
 N          0.5611828495       -2.2215815624       -0.0357388252
 H          4.6415867551       -1.6500154963        0.1443498456
 H          4.5399534122       -0.0417921392        0.9285367786
 H          4.5646644841       -0.1559805405       -0.8415458460
 H          0.5189724513        2.3273877095       -0.0829304019
 H         -1.5187151780        3.6050096599       -0.0943294734
 H         -2.8208160426        2.8453600615        0.8361431474
 H         -2.8593822707        2.7931539509       -0.9201700510
 H         -3.3291047807       -2.0291623528        0.0330732333
 H         -2.0580185919       -2.8171893021        0.9645220606
 H         -2.0252430549       -2.8713194047       -0.8063298190
 H          0.0341275145       -3.0343271391        0.2278780493
 H          1.5569575154       -2.2417389649        0.0960279407
