  26
        -43.34614618
 C          4.1777740486        0.9542218745       -0.0235966483
 O          2.7623232724        1.0226134857        0.0051476919
 C          2.1199942378       -0.1592090589       -0.0008047713
 O          2.7342469302       -1.2114181721       -0.0340784190
 C          0.6623193873       -0.0205680730        0.0213263466
 C          0.0882365977        1.2556022901        0.0241648257
 C         -1.2747769803        1.4423772064        0.0102498998
 C         -1.9101571989        2.7984630548        0.0130400688
 C         -2.0701906212        0.2926014320       -0.0086131961
 F         -3.4140954218        0.4638718190       -0.0284523368
 C         -1.5704859390       -0.9911448060       -0.0064236973
 C         -2.4854546642       -2.1816167913       -0.0175330077
 C         -0.1680503937       -1.1653842008        0.0129422072
 N          0.3582363174       -2.4098765302        0.0665103556
 H          4.5313835187        1.9816107174        0.0088141721
 H          4.5174818527        0.4606321006       -0.9369229748
 H          4.5501154866        0.3924336447        0.8359235254
 H          0.7433448890        2.1116875309        0.0338922832
 H         -1.1511056510        3.5753266703        0.0161415606
 H         -2.5433849596        2.9180740883        0.8915516977
 H         -2.5420271199        2.9228986170       -0.8656993241
 H         -3.5226135582       -1.8593439190       -0.0116619216
 H         -2.3128587597       -2.8040624038        0.8603860092
 H         -2.3217888490       -2.7867321511       -0.9102687761
 H         -0.2211356922       -3.2049474324       -0.1279326642
 H          1.3630279263       -2.4834847705       -0.0179204316
