  17
        -25.20317581
 C          2.9136718968        1.1694255400       -0.0021798068
 C          1.5865413941        1.2068303303        0.0032402776
 C          0.7204760375        0.0479323736        0.0009402222
 C          1.0795798185       -1.2740011243        0.0012360387
 O          0.0000345332       -2.0700122729        0.0000183149
 C         -1.0795352749       -1.2740376873       -0.0012783894
 C         -0.7204803446        0.0479088706       -0.0007822126
 C         -1.5865814108        1.2067811666       -0.0029939691
 C         -2.9137114384        1.1693831473        0.0018045602
 H          3.5007461547        2.0714032402        0.0004637277
 H          3.4603535887        0.2424378107       -0.0093795871
 H          1.0839202879        2.1646115075        0.0100920958
 H          2.0374140614       -1.7544406713        0.0026881368
 H         -2.0373575759       -1.7545010581       -0.0027640180
 H         -1.0839875336        2.1645621853       -0.0093250309
 H         -3.4604483007        0.2424582407        0.0085781133
 H         -3.5007202693        2.0714105113       -0.0004859223
  17
        -25.20214078
 C          1.8495633735        2.0102894094        0.2575024636
 C          1.9270525250        0.7616905942       -0.1838182852
 C          0.8618324875       -0.2193669081       -0.1173321210
 C          1.0357209949       -1.5745898482       -0.0386628947
 O         -0.1415484048       -2.2123544736        0.0534614385
 C         -1.0990825194       -1.2721341492        0.0263574084
 C         -0.5619523265       -0.0176805249       -0.0797286588
 C         -1.2784222383        1.2350814854       -0.2153041778
 C         -2.5052393433        1.4524953939        0.2393869966
 H          2.6862710540        2.6839230209        0.1839363892
 H          0.9614136668        2.3983252816        0.7258559847
 H          2.8546902225        0.3928092556       -0.6041229489
 H          1.9251829719       -2.1733597205       -0.0204549775
 H         -2.1167117817       -1.6069581414        0.0594377647
 H         -0.7445055580        2.0169023096       -0.7392401595
 H         -3.0515542253        0.6992994361        0.7813231980
 H         -3.0024439491        2.3960682752        0.0945306279
  17
        -25.20014150
 C          1.5883191416        2.0524290496       -0.3197881835
 C          1.6434457750        0.8946513578        0.3233249570
 C          0.6976117387       -0.1982716580        0.1759559031
 C          1.0410123230       -1.5197493190        0.2734972950
 O          0.0001379008       -2.3214324020        0.0000088592
 C         -1.0408856802       -1.5199186581       -0.2733601565
 C         -0.6977367757       -0.1983728182       -0.1756659091
 C         -1.6438173828        0.8943194106       -0.3228756393
 C         -1.5881327438        2.0527715597        0.3189887886
 H          2.3473829628        2.8044980000       -0.1882669622
 H          0.7891119544        2.2877083203       -1.0014448416
 H          2.4803463804        0.6761276152        0.9756844144
 H          1.9785999906       -1.9880689886        0.5011857749
 H         -1.9783844957       -1.9883882466       -0.5011093493
 H         -2.4814420554        0.6750519821       -0.9740443664
 H         -0.7881603876        2.2889439483        0.9994360137
 H         -2.3474554022        2.8045818108        0.1875004277
