  22
        -29.45432326
 C          2.9249526079       -1.4740266223       -0.0008566717
 O          2.3655564149       -0.1850496573        0.0007006616
 C          1.0049009314       -0.0641153351        0.0004055648
 C          0.1136606859       -1.1307458826        0.0000361918
 C         -1.2542000332       -0.8961105345       -0.0001767282
 C         -2.2243685848       -2.0401563271       -0.0005286706
 C         -1.7246299004        0.4093014017       -0.0001830946
 C         -0.8475507742        1.4845084411        0.0001308877
 C         -1.3514062059        2.8967737480        0.0001440545
 C          0.5156921678        1.2388668520        0.0005024140
 H          4.0041821139       -1.3276302223       -0.0005647711
 H          2.6381455933       -2.0375026361       -0.8951940178
 H          2.6380204432       -2.0398253749        0.8919661532
 H          0.4684047885       -2.1498753308       -0.0000756337
 H         -1.7058368766       -2.9955736891        0.0010497919
 H         -2.8637509002       -1.9935930720       -0.8812367235
 H         -2.8663121623       -1.9920175582        0.8782156140
 H         -2.7906389121        0.5867036056       -0.0004405994
 H         -2.4380338888        2.9227994675       -0.0025825170
 H         -0.9877534145        3.4283761181       -0.8780531313
 H         -0.9922999747        3.4266822414        0.8812515074
 H          1.2240589255        2.0526622663        0.0008109167
