25
 energy: -42.106058220738 gnorm: 0.000030352307 xtb: 6.4.1 (23d549d)
C        -3.35742431930000   -2.98666722490000    0.34257695810000
C        -3.37188767990000   -1.67592170200000    0.12478862690000
C        -2.16837312370000   -0.88797358670000    0.06455036040000
N        -0.94212536470000   -1.30539205150000    0.19472270570000
C        -0.15277495940000   -0.20570553810000    0.05037326480000
C         1.31059034350000   -0.37883831250000    0.15447549990000
O         1.84297980370000   -1.17899073020000    0.87604247120000
O         1.97514477130000    0.43538881300000   -0.67952129370000
C         3.40001571870000    0.31684368330000   -0.68449623210000
C         4.03759933070000    1.09950528840000    0.45500693900000
C        -0.96830183200000    0.89860066400000   -0.16237679790000
C        -0.80544556940000    2.31961021340000   -0.32137302940000
C         0.33566199590000    3.00005503480000   -0.29403477850000
O        -2.24535430820000    0.44199317800000   -0.14860502780000
H        -4.26506874660000   -3.56218558650000    0.38610325640000
H        -2.42445248030000   -3.50379943560000    0.48283403010000
H        -4.28830628330000   -1.12111607090000   -0.01853306120000
H         3.71040652400000    0.70755909900000   -1.65570863440000
H         3.66440567680000   -0.74251211990000   -0.60448974940000
H         3.77388303470000    2.15292609850000    0.39191250490000
H         5.11811161510000    1.00346159040000    0.39884007850000
H         3.69932182810000    0.70486742400000    1.40996015930000
H        -1.74775046230000    2.83524567010000   -0.45794113540000
H         1.28454012850000    2.51509254170000   -0.16544429660000
H         0.34078040580000    4.06968976070000   -0.41057938690000
