  18
        -30.67917876
 C          3.2468195527        0.0208334746        0.0000181360
 C          1.7503148467        0.0014982379        0.0000141578
 C          1.0448539174       -1.1922014040       -0.0000033014
 C         -0.3384199877       -1.1774792637       -0.0000123099
 F         -0.9863456392       -2.3628225107       -0.0000171334
 C         -1.0859148327       -0.0080446327       -0.0000047774
 C         -2.5816212525        0.0091446735        0.0000413422
 C         -0.3426776962        1.1685768392       -0.0000109508
 F         -1.0104758058        2.3425550746       -0.0000182287
 C          1.0362087684        1.1949110879       -0.0000027035
 H          3.6493909096       -0.9879836595        0.0006606026
 H          3.6175019305        0.5457776967        0.8790403909
 H          3.6174994635        0.5446266881       -0.8796974124
 H          1.5562510415       -2.1419403618       -0.0000001259
 H         -2.9764366076       -1.0025841384       -0.0002558387
 H         -2.9496475480        0.5369263489       -0.8789644801
 H         -2.9495868860        0.5363657171        0.8794126143
 H          1.5462763835        2.1454076789       -0.0000010178
