  80
        -93.64559078
 C         -2.6056346267        1.7779122475       -5.7094974807
 C         -2.7735217312        2.3410753692       -4.3028299027
 C         -1.7296018360        1.8150014210       -3.3173350990
 C         -1.8973614555        0.3323545349       -2.9916240317
 C         -0.8489028665       -0.1417348480       -1.9888006136
 C         -0.9101959060       -1.6439379182       -1.7089729388
 C         -2.2073755634       -2.1242182130       -1.0550373147
 C         -2.4899681675       -1.4162752287        0.2675971050
 C         -3.6224881079       -2.0766579408        1.0502004251
 C         -3.9964170109       -1.3118849621        2.3261565833
 O         -2.9687820241       -1.3164188179        3.2925995599
 C         -1.9112220410       -0.4470738027        3.1818168245
 C         -1.9666504391        0.8049523257        2.5806694444
 C         -0.8566370498        1.6273425662        2.5134884050
 C         -0.9174540937        2.9661446688        1.8444370114
 C          0.3485267739        1.1975532709        3.0819339548
 O          1.3936260772        2.0770325368        2.9799402989
 C          2.6933696469        1.6567318714        3.3261418967
 C          3.2983184514        0.6884354354        2.3056929363
 C          3.4531401757        1.3506237502        0.9382876918
 C          4.0062385769        0.4064433302       -0.1303713357
 C          2.9699393080       -0.5974021142       -0.6324108922
 C          3.5521545048       -1.6463626760       -1.5820964441
 C          4.1751495845       -1.0918476795       -2.8656643884
 C          3.2081580318       -0.3463949484       -3.7865672664
 C          2.1451485205       -1.2499322396       -4.4076659060
 C          1.2727227366       -0.4922418128       -5.4013611008
 C          0.3958661633       -0.0372268454        3.7146663041
 C         -0.7143339205       -0.8650753997        3.7717947385
 C         -0.6528802565       -2.1984387770        4.4514996249
 H         -3.3235464124        2.2344714384       -6.3872580608
 H         -2.7654854543        0.7030436858       -5.7228092232
 H         -1.6043231922        1.9810256161       -6.0836565907
 H         -3.7728085090        2.1006979607       -3.9322584181
 H         -2.6923050386        3.4298922694       -4.3488360547
 H         -1.8014552516        2.3870315561       -2.3884371116
 H         -0.7320620611        1.9871587134       -3.7298168951
 H         -1.8033643046       -0.2600215630       -3.9032733297
 H         -2.8986764720        0.1718661087       -2.5881846365
 H         -0.9529643804        0.4117234240       -1.0537585082
 H          0.1403837144        0.0874814344       -2.3918434285
 H         -0.0747154357       -1.9045672462       -1.0537740562
 H         -0.7750299044       -2.1843828224       -2.6498055267
 H         -2.1201283941       -3.1986894670       -0.8734651786
 H         -3.0467948949       -1.9781469925       -1.7373362882
 H         -2.7544212812       -0.3759571579        0.0730191438
 H         -1.5806496200       -1.4230639305        0.8716575405
 H         -3.3312715804       -3.0924550898        1.3260304620
 H         -4.5155117929       -2.1397144382        0.4237792527
 H         -4.8339048128       -1.8176243075        2.8172712717
 H         -4.3147093031       -0.2942431826        2.0757841299
 H         -2.8870861549        1.1619939183        2.1443071104
 H         -1.9090266951        3.1579849568        1.4426576803
 H         -0.1890127160        3.0140153623        1.0359946680
 H         -0.6623049882        3.7509662538        2.5545068482
 H          2.7089901263        1.2180865754        4.3323814203
 H          3.2784252157        2.5812780668        3.3490894320
 H          2.6529812944       -0.1866307478        2.2204982460
 H          4.2729778326        0.3610956628        2.6735795152
 H          4.1265942256        2.2051781222        1.0423363286
 H          2.4817052464        1.7328517936        0.6181862875
 H          4.8680814241       -0.1303721341        0.2740492926
 H          4.3547924455        1.0074913952       -0.9719015665
 H          2.1585934914       -0.0584367306       -1.1235108159
 H          2.5351068090       -1.1249383379        0.2193558652
 H          2.7635640441       -2.3547487012       -1.8437836150
 H          4.3252217496       -2.2055603510       -1.0479599477
 H          4.6071251454       -1.9285863265       -3.4213237826
 H          4.9965491147       -0.4227337142       -2.6025307631
 H          3.7885347799        0.1114577814       -4.5922698947
 H          2.7232020270        0.4631769981       -3.2381757886
 H          1.5126149136       -1.6679662617       -3.6235335739
 H          2.6361759072       -2.0818772428       -4.9184872064
 H          0.7679778416        0.3373685640       -4.9117156598
 H          0.5168689423       -1.1485133953       -5.8270904482
 H          1.8759287536       -0.0925139331       -6.2140902488
 H          1.3067320597       -0.3836057491        4.1785138229
 H          0.3651566715       -2.4422692481        4.7441912829
 H         -1.0330619621       -2.9741003057        3.7888612213
 H         -1.2847893948       -2.1940221694        5.3384942775
