54
 energy: -79.686152271900 gnorm: 0.000052728221 xtb: 6.4.1 (23d549d)
C         5.83321869580000   -0.35876215560000    0.73746016720000
C         5.03019753030000   -0.09762325060000   -0.28191161140000
C         3.56318142780000   -0.03987509710000   -0.19139577750000
C         2.92767022610000    0.87524077470000    0.66427884390000
C         3.65179157010000    1.82087528960000    1.43714696840000
C         3.01785902520000    2.69097696990000    2.26972549490000
C         1.61341236950000    2.67516578060000    2.38500470830000
C         0.87795896700000    1.80658607990000    1.64066729630000
C         1.49992643940000    0.89394111660000    0.74860049450000
C         0.73986794020000    0.02327625460000   -0.04214640690000
C        -0.73920164640000    0.04053840100000    0.04849009740000
C        -1.47449976420000    0.97317757700000   -0.69355183290000
C        -0.82692725420000    1.91841311530000   -1.53184001960000
C        -1.53791238620000    2.84558527580000   -2.22769691960000
C        -2.94191662430000    2.89009098860000   -2.11468719580000
C        -3.60020590280000    1.99082104790000   -1.33359652440000
C        -2.90252993370000    0.98564996700000   -0.61333953670000
C        -3.56369445800000    0.04020432770000    0.18822928840000
C        -5.03210338060000    0.01263469300000    0.26976046450000
C        -5.83535738680000   -0.17202995850000   -0.76602665330000
C        -2.82161541530000   -0.89121857200000    0.93381069060000
C        -3.45067917530000   -1.87752611430000    1.73798688280000
C        -2.72202603880000   -2.77384671880000    2.45815214510000
C        -1.31385269940000   -2.74567017700000    2.41688312320000
C        -0.67067173400000   -1.82954029600000    1.64381741680000
C        -1.39459224070000   -0.88392443980000    0.87194962940000
C         1.37015351820000   -0.87092539340000   -0.91705729170000
C         0.62122996740000   -1.75439372600000   -1.73720259950000
C         1.23969294530000   -2.64255349140000   -2.56138827810000
C         2.64662368220000   -2.70344533850000   -2.60899821030000
C         3.39894610490000   -1.86633071900000   -1.84335630270000
C         2.79639679300000   -0.91039887220000   -0.98408444420000
H         6.90385050080000   -0.39620676130000    0.62407874110000
H         5.44748691230000   -0.56001973110000    1.72360451870000
H         5.44647649630000    0.07475222760000   -1.26803037810000
H         4.72690556440000    1.84600372420000    1.34524897980000
H         3.58752404030000    3.40459034270000    2.84710390200000
H         1.12865110750000    3.36600908470000    3.05908566890000
H        -0.19993841580000    1.79953913910000    1.71067955280000
H         0.25068762210000    1.88839831130000   -1.59993821060000
H        -1.03370805720000    3.56080859930000   -2.86084548570000
H        -3.49160576410000    3.64902153950000   -2.65226662910000
H        -4.67467498130000    2.03769779380000   -1.24263711150000
H        -5.44961466100000    0.13949299080000    1.26222939250000
H        -5.44889854360000   -0.32691847430000   -1.76023748920000
H        -6.90719679920000   -0.19032039140000   -0.65956591320000
H        -4.52938810960000   -1.91327637580000    1.76429409440000
H        -3.21814355130000   -3.51652701280000    3.06595518200000
H        -0.75233681630000   -3.46106409750000    2.99960798230000
H         0.40849319720000   -1.80765404930000    1.60154367090000
H        -0.45695798600000   -1.70812592710000   -1.69015087380000
H         0.65921785290000   -3.31079850220000   -3.18038416190000
H         3.12273010190000   -3.42390517400000   -3.25814337920000
H         4.47637471570000   -1.92744359530000   -1.87513502920000
