46
 energy: -76.742009189216 gnorm: 0.000121922950 xtb: 6.4.1 (23d549d)
F         2.18943805150000    5.55933402840000   -0.50509212880000
C         2.07779367600000    4.23294064180000   -0.41496818900000
F         0.79115530680000    3.90726338020000   -0.49631266550000
C         3.12022978740000    3.42735547750000   -0.27426085340000
C         3.13939963880000    1.97792846890000   -0.16860273660000
C         4.39590227350000    1.34729239120000   -0.13058998750000
C         4.51848636660000   -0.01925454690000   -0.01929504030000
C         1.97616010060000    1.21455308060000   -0.10041199940000
C         2.09855702850000   -0.16158347040000   -0.01095118560000
C         3.36517871060000   -0.79157248550000    0.04507262440000
C         3.11659039800000   -2.19669240350000    0.17993491110000
C         3.94318767750000   -3.31033192190000    0.26712478370000
C         3.36207080700000   -4.55751290320000    0.36941786910000
C         1.97590690800000   -4.70466322730000    0.37102529660000
C         1.13324042320000   -3.61350033070000    0.28576267860000
C         1.71077473200000   -2.35401854040000    0.20577901510000
N         1.11002947010000   -1.11730599710000    0.08931537330000
C        -0.27202957250000   -0.87249994430000    0.08055517800000
C        -0.84277062560000   -0.10155940520000   -0.92761548730000
C        -2.20207404020000    0.13836721110000   -0.92966607980000
C        -3.02316009930000   -0.38554162750000    0.06666031070000
C        -4.47096813870000   -0.13045937450000    0.05918607050000
C        -5.19475452250000   -0.18386374480000   -1.12978379030000
C        -6.55688414810000    0.05169292900000   -1.13517499920000
C        -7.21683801740000    0.35072157560000    0.04500893720000
C        -6.50630168850000    0.41006989070000    1.23217862900000
C        -5.14524912960000    0.16838261030000    1.24085622840000
C        -2.44160635700000   -1.15748266750000    1.07033907990000
C        -1.08254327740000   -1.39865979670000    1.08190276900000
H         4.07864431320000    3.92544853460000   -0.24390922830000
H         5.28426649130000    1.95874618860000   -0.18533992160000
H         5.49144901990000   -0.48461692670000    0.02131781210000
H         1.00289678090000    1.67565225250000   -0.10080204130000
H         5.01653189710000   -3.19634446580000    0.25058500180000
H         3.98543176870000   -5.43627179290000    0.44054548900000
H         1.55096344200000   -5.69538275540000    0.43664894190000
H         0.06120526240000   -3.73922650800000    0.27031764880000
H        -0.21805731740000    0.29824910160000   -1.71223399620000
H        -2.63231057150000    0.75228241650000   -1.70677576400000
H        -4.68790690230000   -0.43282602920000   -2.05087252490000
H        -7.10689154120000    0.00026069750000   -2.06361527280000
H        -8.28054641690000    0.53713044440000    0.03951610210000
H        -7.01516560990000    0.64783026020000    2.15504432580000
H        -4.59301767060000    0.23321389710000    2.16718211950000
H        -3.06419131560000   -1.58263598210000    1.84373761750000
H        -0.63905503630000   -1.98548008520000    1.87263770460000
