  22
        -29.90729937
 C          3.2479061716       -1.3637669334       -0.1791744898
 C          2.0498847903       -0.4715360800       -0.0635661321
 C          2.1139061489        0.8749229257       -0.3885082178
 C          0.9910190066        1.6764599269       -0.2900683281
 C         -0.2273762174        1.1655703395        0.1337559899
 C         -1.4326562753        2.0511113019        0.2282689516
 C         -0.2948108157       -0.1883440528        0.4699549219
 C         -1.5964076080       -0.8013581003        0.9351947472
 C         -2.5070255574       -0.9291081432       -0.1754935699
 N         -3.2141217564       -1.0290591808       -1.0683624447
 C          0.8326271913       -0.9862635388        0.3638711603
 H          4.1509423969       -0.7820887456       -0.3453779346
 H          3.1234000955       -2.0516916060       -1.0155482106
 H          3.3739574246       -1.9578668695        0.7244281646
 H          3.0478405848        1.3022091276       -0.7238458281
 H          1.0610583244        2.7226980631       -0.5511751830
 H         -1.1988878393        3.0511778511       -0.1274620362
 H         -1.7771734717        2.1288523753        1.2605453106
 H         -2.2516026534        1.6534595734       -0.3703408817
 H         -2.0701487906       -0.1796683907        1.7008850411
 H         -1.4218304870       -1.7976312493        1.3503677230
 H          0.7681686490       -2.0355093454        0.6196344329
  22
        -29.90589033
 C          2.7399345354       -1.6780008701       -0.3982945996
 C          1.7822596027       -0.5493616734       -0.1692249164
 C          2.2244043748        0.7474005596        0.0414568902
 C          1.3193106595        1.7706366396        0.2593507755
 C         -0.0473215818        1.5347673978        0.2740518403
 C         -1.0087526823        2.6600660023        0.5114406126
 C         -0.4985171687        0.2289686812        0.0623279312
 C         -1.9864697909       -0.0456957056        0.0747540520
 C         -2.3278769831       -1.4238156118       -0.1630863179
 N         -2.6197590231       -2.5132561810       -0.3506490838
 C          0.4137370643       -0.7904792295       -0.1550118919
 H          3.7554116673       -1.3090993069       -0.5181955225
 H          2.4617913621       -2.2396420936       -1.2884629672
 H          2.7191902091       -2.3655348993        0.4470548478
 H          3.2831262248        0.9626791392        0.0353258868
 H          1.6823804609        2.7756686264        0.4212353352
 H         -0.4725577711        3.5945569096        0.6548759456
 H         -1.6151084074        2.4743630831        1.3983968327
 H         -1.6847802693        2.7807033778       -0.3355032913
 H         -2.4821193654        0.5592099185       -0.6936571350
 H         -2.4087724061        0.2414022243        1.0449928011
 H          0.0565713086       -1.7975615431       -0.3182121507
