  23
        -29.60693573
 C          3.8714301848        0.3466176880        0.0747317341
 C          2.6621121104        0.8743076847       -0.0718153960
 C          1.3898333191        0.1633849571       -0.0435175683
 C          1.2907572835       -1.2238969810        0.0611075691
 C          0.0540345566       -1.8367602908        0.0786160797
 C         -1.1239618649       -1.1072251230       -0.0066822227
 C         -2.4472701008       -1.8101367682        0.0328346437
 C         -1.0436365884        0.2891215159       -0.1099524537
 C         -2.2563626876        1.1022032062       -0.2107801422
 C         -2.3905622453        2.3250028017        0.2835711596
 C          0.2076832753        0.8947732852       -0.1303137414
 H          4.7569579990        0.9579648739        0.0396257759
 H          4.0335865518       -0.7053467353        0.2355708146
 H          2.5739435567        1.9436209439       -0.2243022035
 H          2.1815435185       -1.8292164962        0.1230945059
 H         -0.0004198047       -2.9136616053        0.1608303866
 H         -2.3095315015       -2.8722849135        0.2205520449
 H         -2.9711553167       -1.6973902244       -0.9168895600
 H         -3.0806075311       -1.3972806075        0.8167898259
 H         -3.0917820230        0.6436348898       -0.7235097479
 H         -1.6009257964        2.8116107992        0.8315388220
 H         -3.3057047222        2.8820456500        0.1747535132
 H          0.2632055534        1.9690457402       -0.2351587898
