  23
        -37.89035589
 C          3.8197133026       -0.3258956638       -0.9481887498
 C          3.1500453497       -0.6362437719        0.3831510541
 O          1.7298619360       -0.7060825378        0.2532595931
 C          1.0695865749        0.4707594257        0.2724987071
 O          1.6079048594        1.5363650669        0.4128607663
 C         -0.3715302873        0.2519481006        0.1111150221
 N         -1.2750895251        1.2890024561        0.1062452668
 C         -2.4304276680        0.7440713297       -0.0552782523
 C         -3.7392134589        1.4293691006       -0.1298847784
 O         -2.3714999504       -0.6077831076       -0.1623639694
 C         -1.0630943484       -0.9245295409       -0.0569662258
 C         -0.6529334253       -2.3448850938       -0.1333921637
 H          4.8988247490       -0.3370277626       -0.8246164399
 H          3.5144680692        0.6586051088       -1.2934977981
 H          3.5388911840       -1.0659009318       -1.6940256806
 H          3.4013385791        0.1349722587        1.1187469709
 H          3.4481859380       -1.6187849809        0.7555393605
 H         -3.5784030871        2.4971460510       -0.0264671795
 H         -4.3938821918        1.0769956447        0.6655278235
 H         -4.2193279411        1.2199965399       -1.0843891829
 H         -1.5279405967       -2.9658023279       -0.3073741790
 H         -0.1691311013       -2.6462564434        0.7939057724
 H          0.0644053216       -2.4852112514       -0.9394190438
