  49
        -65.99698367
 C         -5.6744794905       -1.6460067604       -1.1223718690
 C         -5.1717453759       -0.5767721444       -0.5153071210
 C         -3.8012632933       -0.3954280212       -0.0646786760
 C         -3.4342499973        0.7882552075        0.5716900627
 C         -2.1428795908        1.0061443752        1.0082182890
 C         -1.1407152488        0.0444156777        0.8494548085
 C         -1.5203280070       -1.1513440861        0.2281666804
 C         -2.8063025399       -1.3594052595       -0.2277661480
 S         -0.3929158233       -2.5058891887        0.0577948260
 C          1.1497454726       -1.6411056644        0.1413558049
 C          2.2479805181       -2.2878442987       -0.3882624365
 C          3.5273753152       -1.7388504192       -0.3018987712
 C          4.7148600248       -2.3923807010       -0.8282414107
 C          4.7694475346       -3.5702464259       -1.4399230806
 C          3.6421404116       -0.5031172177        0.3310491914
 C          2.5409736238        0.1547640810        0.8412542219
 C          1.2571142476       -0.3927624554        0.7656165911
 N          0.1570704529        0.2751049348        1.2946834932
 C          0.3857744995        1.3434500421        2.2437164404
 C          0.6209501297        2.7529813158        1.6387806698
 C          0.5589890113        2.8153867135        0.1112564347
 C          0.7680078918        4.2445868745       -0.3851562176
 C          0.7642480197        4.3510743928       -1.9103137599
 C         -0.6005896207        4.0679042237       -2.5275993006
 H         -6.7083615391       -1.6854394819       -1.4193623115
 H         -5.0863367500       -2.5188272519       -1.3469854430
 H         -5.8212351270        0.2680470890       -0.3183932590
 H         -4.1730213958        1.5619441102        0.7246934973
 H         -1.9218167521        1.9486931103        1.4800143322
 H         -3.0280305532       -2.3046754008       -0.6967508560
 H          2.0916705775       -3.2477014109       -0.8539934669
 H          5.6315311274       -1.8317031216       -0.6879043438
 H          3.8986273622       -4.1792096907       -1.6103565932
 H          5.7024117108       -3.9723711768       -1.7956744586
 H          4.6142139206       -0.0400020836        0.4229005524
 H          2.6955780054        1.1144929562        1.3046721843
 H          1.2454116497        1.0523208208        2.8529093118
 H         -0.4770687193        1.3659815012        2.9143951741
 H          1.5966668308        3.1241223975        1.9610165098
 H         -0.1243315709        3.4430555017        2.0411751788
 H         -0.4095525497        2.4537380683       -0.2329383708
 H          1.3284810213        2.1744284539       -0.3230743430
 H          1.7258077140        4.6139630740       -0.0090779588
 H         -0.0154979982        4.8892520853        0.0210633286
 H          1.4999402310        3.6560174111       -2.3213608870
 H          1.0731250411        5.3615854464       -2.1885138090
 H         -0.9031347950        3.0375352544       -2.3590418446
 H         -0.5703542964        4.2382187870       -3.6013321298
 H         -1.3555510409        4.7235332600       -2.0986095061
