  24
        -42.78194469
 C          1.6320182427       -2.2965332070        0.7691695681
 C          0.8205827573       -1.1002467621        0.3627739099
 C         -0.5631959929       -1.1866148574        0.3875282618
 C         -1.3844203598       -0.1132113947        0.0575134870
 C         -2.8552728571       -0.3849524695        0.0983022996
 O         -3.3642496641       -1.0809353230        0.9306909754
 O         -3.5904259740        0.1563677570       -0.8906587165
 C         -0.8209278947        1.1324724186       -0.2432016070
 C         -1.6326865301        2.3699754203       -0.4968526754
 C          0.5628385700        1.2214654311       -0.2582133697
 C          1.3842429812        0.1286810348       -0.0001414374
 C          2.8552714079        0.3860982681       -0.0937127269
 O          3.3609977594        1.4065371613        0.2794284370
 O          3.5945976483       -0.5774780310       -0.6737263695
 H          1.0837849879       -2.8690831154        1.5141130775
 H          2.5899775797       -2.0105757265        1.1972812981
 H          1.8058179078       -2.9601071248       -0.0806908262
 H         -1.0380376506       -2.1136201292        0.6737929530
 H         -3.0559750798        0.6695051351       -1.5105246460
 H         -2.5935082942        2.3362843437        0.0114860604
 H         -1.8005661924        2.5170251264       -1.5659554948
 H         -1.0876908241        3.2398545594       -0.1368533332
 H          1.0374754778        2.1675089918       -0.4738125596
 H          3.0625889295       -1.3332335695       -0.9547271177
