  24
        -33.66172958
 C         -3.5200308707        0.2262703066        0.4806343628
 C         -2.4535991221       -0.1856266113       -0.1911040587
 C         -1.1289402097        0.4293661120       -0.1131995233
 C         -1.0182599921        1.8126740752        0.0190365878
 C          0.2132519543        2.4357462254        0.0137095892
 C          1.3664433114        1.6829438554       -0.1258955234
 C          1.2793918778        0.3065394546       -0.2592677416
 O          2.4481036911       -0.4194788503       -0.4262939545
 C          2.9111533121       -1.0484842573        0.7480152882
 C          0.0366037980       -0.3432954478       -0.2462408462
 C          0.0166750057       -1.8000528158       -0.3774543087
 C         -0.7858053157       -2.6226479323        0.2843252176
 H         -4.4787704199       -0.2500157306        0.3658329514
 H         -3.4737956586        1.0389674344        1.1865440810
 H         -2.5336785907       -1.0335727354       -0.8596512623
 H         -1.9183653277        2.4034445578        0.0977373657
 H          0.2787766342        3.5091767481        0.1114141697
 H          2.3400120480        2.1488014045       -0.1431934858
 H          3.8076465407       -1.5977451220        0.4655546384
 H          2.1674483796       -1.7434646794        1.1535966612
 H          3.1632930263       -0.3098144510        1.5180286294
 H          0.7687498495       -2.1991233473       -1.0479079053
 H         -1.5070839587       -2.2648375322        1.0002930959
 H         -0.7343643869       -3.6899239210        0.1473665204
