20
 energy: -39.124234900733 gnorm: 0.000076114206 xtb: 6.4.1 (23d549d)
C        -4.54726348950000   -0.33121690080000   -0.16653651150000
C        -3.31623878100000   -0.77073910400000    0.06157774890000
C        -2.10238493140000    0.03903107230000    0.04337099680000
C        -2.10812828430000    1.43472837760000    0.04528593920000
C        -0.92590780790000    2.14943098680000    0.02939446370000
C         0.29543679500000    1.50181866440000    0.01239150260000
C         0.35566860270000    0.10711406340000    0.01502843910000
C         1.59143694430000   -0.65915245130000    0.00070865640000
C         2.83448469580000   -0.20261007360000   -0.01932009160000
F         3.24173632700000    1.06083902490000   -0.03009186120000
F         3.89984242950000   -0.99796532660000   -0.03195544430000
C        -0.85648262490000   -0.58702091720000    0.03376829710000
F        -0.81539057080000   -1.93889131300000    0.03542047450000
H        -5.39013946410000   -0.99947283330000   -0.13673506570000
H        -4.76744166740000    0.69644724790000   -0.39991451450000
H        -3.15848548490000   -1.82150956150000    0.26524287750000
H        -3.04954068840000    1.95920268080000    0.07115566380000
H        -0.95361991110000    3.22839600510000    0.03282136670000
H         1.20348079960000    2.08035793400000    0.00002728890000
H         1.49293275760000   -1.73511388440000    0.00589978860000
