  23
        -37.88957937
 C          3.9008531526       -1.4448274717        0.3923016700
 C          3.1994716800       -0.1647838262       -0.0215807869
 O          1.7896878409       -0.3734265873        0.0730965298
 C          1.0198069980        0.6882928645       -0.2366366309
 O          1.4673063872        1.7524322604       -0.5732069747
 C         -0.4010774303        0.3515741814       -0.1021209301
 N         -1.4012921746        1.2593597309       -0.3610537356
 C         -2.5051953883        0.6328704959       -0.1446114893
 C         -3.8777970079        1.1670918549       -0.2812519271
 O         -2.3198414670       -0.6531872972        0.2482503613
 C         -0.9822277926       -0.8357180208        0.2765069078
 C         -0.4382440068       -2.1548086076        0.6711506132
 H          4.9762932794       -1.3091197298        0.3260050451
 H          3.6050036480       -2.2622020800       -0.2597720070
 H          3.6378888684       -1.7030330226        1.4145812033
 H          3.4480658174        0.1114806982       -1.0525710333
 H          3.4783950589        0.6724241816        0.6282191012
 H         -3.8172261465        2.2053463770       -0.5895528570
 H         -4.4056339420        1.0945855772        0.6682026219
 H         -4.4316283911        0.5948165029       -1.0237638424
 H         -1.2566187218       -2.8220240239        0.9287135431
 H          0.2297559349       -2.0451929642        1.5228888837
 H          0.1388827556       -2.5825887273       -0.1464399645
