27
 energy: -36.833945724623 gnorm: 0.000173589450 xtb: 6.4.1 (23d549d)
C        -3.64364976190000   -0.38442149560000    0.19690959460000
C        -2.46581354900000   -0.77176434350000   -0.27404479000000
C        -1.21867162940000   -0.01811665640000   -0.17535184670000
C        -1.19837558700000    1.36550097360000   -0.01838919470000
C        -0.00707187050000    2.06926090320000    0.06292776670000
C        -0.01126026620000    3.56269557560000    0.19896193670000
C         1.18864503400000    1.37277436680000   -0.01793555820000
C         1.21747397440000   -0.01052167820000   -0.17557422830000
C         2.46927390320000   -0.75624160470000   -0.27583781700000
C         3.64449086320000   -0.36276835440000    0.19633773320000
C         0.00153082900000   -0.70047958330000   -0.26291734950000
O         0.00576792030000   -2.07751112540000   -0.43253751570000
C         0.01481801130000   -2.79654607170000    0.78051413990000
H        -4.52169371180000   -0.99771529480000    0.08681416680000
H        -3.78039521380000    0.54862461160000    0.71758948710000
H        -2.37086850680000   -1.73333703240000   -0.76204111480000
H        -2.13408372980000    1.90286036920000    0.02051765710000
H        -0.90176074450000    3.90239067340000    0.72251648250000
H        -0.00318234250000    4.02558772540000   -0.78831701690000
H         0.86855532250000    3.90577083010000    0.73824242500000
H         2.12095841990000    1.91605352480000    0.02000208370000
H         2.38043895280000   -1.71732525080000   -0.76598495760000
H         3.77516148570000    0.56979592140000    0.71943717990000
H         4.52635351270000   -0.97031998820000    0.08513684640000
H        -0.87644060380000   -2.57633517490000    1.37982801880000
H         0.90730620140000   -2.56489726410000    1.37358179970000
H         0.02069573810000   -3.85159017220000    0.51115941560000
