  33
        -39.14986397
 C          2.5950610363        2.0277424485       -1.5689751446
 C          3.6542986121        1.1782458745       -0.8755903223
 C          3.0892956334        0.3392862688        0.2714370518
 C          2.2181462700       -0.8168921077       -0.2143800718
 C          1.6529008792       -1.6675104102        0.9229942809
 C          0.5912295538       -0.9399241679        1.7600338151
 C         -0.5370281979       -0.4303600493        0.9162855052
 C         -0.6592970237        0.9340482534        0.5332639860
 C         -1.7243105218        1.1949316809       -0.2629489514
 C         -2.1522295122        2.4919184730       -0.8515902100
 S         -2.6292999006       -0.2568655041       -0.5672673991
 C         -1.5331451659       -1.2020252957        0.3994037530
 C         -1.7621709607       -2.6654768348        0.5465447629
 H          3.0470533098        2.6290151153       -2.3548098051
 H          2.1196446277        2.6988754796       -0.8566504920
 H          1.8251189470        1.4060689770       -2.0181137022
 H          4.4290777077        1.8394695328       -0.4792459801
 H          4.1270789370        0.5181979443       -1.6066434021
 H          2.5110281670        0.9902285065        0.9285530157
 H          3.9186030224       -0.0685377354        0.8556812496
 H          2.8204902034       -1.4575629675       -0.8638472796
 H          1.3875931283       -0.4315575393       -0.8069822252
 H          2.4655443196       -1.9844778822        1.5812798125
 H          1.2019765387       -2.5648895114        0.4944080470
 H          1.0482716262       -0.1007694425        2.2856289460
 H          0.2075514007       -1.6332553353        2.5133644152
 H          0.0325449750        1.6946693365        0.8505436498
 H         -1.4677145259        3.2801101434       -0.5464588821
 H         -3.1581136452        2.7524085779       -0.5225633850
 H         -2.1615448062        2.4374551647       -1.9402059347
 H         -2.8271284092       -2.8879147239        0.5227361159
 H         -1.3473865870       -3.0217819284        1.4875562826
 H         -1.2863589171       -3.2160864315       -0.2668536308
