  24
        -42.12763010
 C         -3.2197641785        3.2479367296       -0.2991401704
 C         -3.3391912448        1.9509837714       -0.0407058353
 C         -2.2742005556        0.9572002062       -0.0369496646
 C         -2.5832250875       -0.3711259960        0.2535555063
 C         -1.6148611409       -1.3556974424        0.2497418074
 C         -0.2881689876       -1.0439750562       -0.0286418265
 O          0.7141234782       -1.9528230985       -0.1124413571
 C          0.4324119986       -3.3069496417        0.1432595942
 C          0.0527913574        0.2978816070       -0.2907210599
 C          1.4288691815        0.7041282998       -0.5711765771
 C          2.5218070148        0.2518121690        0.0192981297
 F          2.6125845804       -0.6189935009        1.0122253224
 F          3.7472426197        0.6804621880       -0.2913214445
 C         -0.9428370093        1.2625910689       -0.3126989939
 H         -4.0740748686        3.9022783002       -0.2767784194
 H         -2.2793965561        3.7120627559       -0.5413282668
 H         -4.3191761864        1.5542099548        0.1958965249
 H         -3.6049984820       -0.6425895926        0.4770092172
 H         -1.9031771385       -2.3728411273        0.4628350421
 H          1.3821811198       -3.8272391521        0.0319682699
 H         -0.2891828962       -3.7104249585       -0.5746681889
 H          0.0589079611       -3.4536334401        1.1612209888
 H          1.5730299348        1.4771094612       -1.3116624050
 H         -0.6601704108        2.2798295260       -0.5341275852
