  24
        -42.12145291
 C         -2.7013450691       -3.0070880777       -0.1742880409
 C         -3.0390622671       -1.7462570102        0.0675555963
 C         -2.1347382830       -0.6040452839        0.1188090512
 C         -2.6621138578        0.6893596037        0.1208881618
 C         -1.8325798272        1.7882357155        0.1317254177
 C         -0.4470845565        1.6447800805        0.1654251193
 O          0.2705478395        2.8074979452        0.1660973349
 C          1.4396534921        2.9105961953       -0.6244529752
 C          0.1041484542        0.3532694308        0.2318790424
 C          1.5396361758        0.1576870578        0.4327364960
 C          2.2593582076       -0.8660655065        0.0050834956
 F          1.8491120517       -1.8823010761       -0.7470083527
 F          3.5598773344       -1.0098862080        0.2591578594
 C         -0.7527981843       -0.7429040596        0.1895799104
 H         -3.4408167662       -3.7888332484       -0.2001881581
 H         -1.6865885778       -3.3113800003       -0.3651936497
 H         -4.0820396513       -1.5007379417        0.2264864931
 H         -3.7327725488        0.8296371378        0.0927841055
 H         -2.2348565605        2.7891231936        0.1120728521
 H          1.3562168260        3.8378508499       -1.1967577053
 H          1.5403279365        2.0733489994       -1.3166411282
 H          2.3292402982        2.9720711749        0.0078861426
 H          2.0667273009        0.8968501364        1.0162761283
 H         -0.3277036480       -1.7306842688        0.2583691353
