24
 energy: -42.121452907199 gnorm: 0.000039744074 xtb: 6.5.0 (unknown)
C           -2.70134506910000       -3.00708807770000       -0.17428804090000
C           -3.03906226710000       -1.74625701020000        0.06755559630000
C           -2.13473828300000       -0.60404528390000        0.11880905120000
C           -2.66211385780000        0.68935960370000        0.12088816180000
C           -1.83257982720000        1.78823571550000        0.13172541770000
C           -0.44708455650000        1.64478008050000        0.16542511930000
O            0.27054783950000        2.80749794520000        0.16609733490000
C            1.43965349210000        2.91059619530000       -0.62445297520000
C            0.10414845420000        0.35326943080000        0.23187904240000
C            1.53963617580000        0.15768705780000        0.43273649600000
C            2.25935820760000       -0.86606550650000        0.00508349560000
F            1.84911205170000       -1.88230107610000       -0.74700835270000
F            3.55987733440000       -1.00988620800000        0.25915785940000
C           -0.75279818430000       -0.74290405960000        0.18957991040000
H           -3.44081676620000       -3.78883324840000       -0.20018815810000
H           -1.68658857780000       -3.31138000030000       -0.36519364970000
H           -4.08203965130000       -1.50073794170000        0.22648649310000
H           -3.73277254880000        0.82963713780000        0.09278410550000
H           -2.23485656050000        2.78912319360000        0.11207285210000
H            1.35621682600000        3.83785084990000       -1.19675770530000
H            1.54032793650000        2.07334899940000       -1.31664112820000
H            2.32924029820000        2.97207117490000        0.00788614260000
H            2.06672730090000        0.89685013640000        1.01627612830000
H           -0.32770364800000       -1.73068426880000        0.25836913530000
