  28
        -41.87277188
 C          4.0778467322       -1.9208554600        0.2936594534
 C          4.1177884299       -0.6040153688        0.1368253074
 C          2.9275313043        0.2332222957        0.0218264949
 C          3.0476427796        1.6231332857       -0.0761718425
 C          1.8986536010        2.3885605323       -0.1729164465
 C          0.6696940181        1.7546041194       -0.1702161099
 C          0.6408671708        0.3614585524       -0.0740514133
 C         -0.6408628365       -0.3613877358       -0.0740715444
 C         -0.6696433611       -1.7545207375       -0.1704549734
 C         -1.8985738054       -2.3885296985       -0.1731257535
 C         -3.0475799320       -1.6231606356       -0.0761324832
 C         -2.9275189882       -0.2332546338        0.0220109882
 C         -4.1178210552        0.6038947126        0.1371706002
 C         -4.0779986742        1.9208347179        0.2931940515
 N         -1.7430355576        0.3706049944        0.0176506988
 N          1.7430228953       -0.3705826445        0.0174926391
 H          4.9715801187       -2.5146752271        0.3794516380
 H          3.1335775849       -2.4345993660        0.3421471818
 H          5.0626045572       -0.0778504286        0.0926319637
 H          4.0239836667        2.0844453524       -0.0736092171
 H          1.9622528447        3.4650486875       -0.2497410836
 H         -0.2584899442        2.2962180120       -0.2431762727
 H          0.2585593864       -2.2960785801       -0.2435955660
 H         -1.9621361905       -3.4650086429       -0.2501093875
 H         -4.0239016634       -2.0845129941       -0.0735230573
 H         -5.0625864614        0.0775736308        0.0937446220
 H         -3.1337876276        2.4347584017        0.3408815902
 H         -4.9717827914        2.5145618747        0.3791022233
