22
 energy: -42.560175064876 gnorm: 0.000033992965 xtb: 6.4.1 (23d549d)
C         4.53537642100000   -0.38675852080000    0.05571207990000
C         3.35466905570000   -0.99476028790000    0.07316010190000
C         2.08919847120000   -0.27935428610000    0.00188539890000
C         0.87574806790000   -0.97473655290000    0.02155848230000
C        -0.30862938140000   -0.26132520060000   -0.03714664300000
C        -1.62071396680000   -0.99849865720000    0.00863049560000
F        -1.47144688810000   -2.31356074830000    0.22025125480000
F        -2.43199818360000   -0.55295524680000    0.98418003430000
F        -2.31606403450000   -0.88516946130000   -1.14019034220000
C        -0.28345151200000    1.13837484290000   -0.11783634200000
C        -1.49252201220000    1.94858149530000   -0.18719240930000
C        -1.58692595130000    3.18440325430000    0.28769969840000
C         0.99328306530000    1.71820101000000   -0.14572747180000
N         2.11863346990000    1.05109048600000   -0.08494708210000
H         5.45941276670000   -0.93548367580000    0.11010927490000
H         4.59381032660000    0.68566041240000   -0.01460157380000
H         3.27960678230000   -2.07147651320000    0.14289775480000
H         0.86489716170000   -2.05156496710000    0.08860121170000
H        -2.35490430370000    1.48813325880000   -0.64886363830000
H        -0.76895952780000    3.67209416560000    0.79054340250000
H        -2.50300049640000    3.74307060420000    0.20987655450000
H         1.09394028080000    2.79087964720000   -0.24115429500000
