  27
        -49.34224030
 C         -4.0815519850        1.4432884224       -0.0585662895
 C         -2.8711711627        1.4999669929       -0.5964762963
 C         -1.7975699952        0.5347690564       -0.3548203188
 C         -2.0862183514       -0.8064495794       -0.1198936961
 C         -1.0604373264       -1.7205632530        0.0356025878
 Cl        -1.4405082843       -3.3819593431        0.3237105020
 C          0.2639823569       -1.3347986568       -0.0573333403
 C          0.5812580671        0.0040705432       -0.2819177400
 C          1.9477139867        0.4856354094       -0.4032007270
 C          3.0748739697       -0.1704435045       -0.1771469099
 F          3.2260559701       -1.4278840555        0.2203880708
 F          4.2772002041        0.3831508553       -0.3175016294
 C         -0.4574472549        0.9437562795       -0.4144611073
 O         -0.1322702859        2.2619937657       -0.6350128730
 C         -0.4366461563        3.1624347610        0.4229124193
 C          0.4548085995        2.9530498275        1.6419702525
 H         -4.8347287377        2.1766560456       -0.2893326850
 H         -4.3614177786        0.6761689230        0.6438573618
 H         -2.6129372677        2.3034988872       -1.2749554939
 H         -3.1121602991       -1.1360797923       -0.0904594334
 H          1.0400758142       -2.0745106143        0.0415439600
 H          2.0511076266        1.5144001759       -0.7157106024
 H         -1.4900820117        3.0685138140        0.7147755916
 H         -0.2728608921        4.1536780735       -0.0064586592
 H          0.3066316280        1.9556666809        2.0515908500
 H          0.2043255980        3.6855079723        2.4041332032
 H          1.5022653855        3.0680895803        1.3749591517
  27
        -49.34128258
 C         -4.0498579443        1.4549879047        0.0486112365
 C         -2.8164667626        1.5599086417       -0.4274976322
 C         -1.7673924778        0.5516723857       -0.3012514978
 C         -2.0633107760       -0.7930745688       -0.0906030419
 C         -1.0448057731       -1.7221744490        0.0086265972
 Cl        -1.4338073029       -3.3843109403        0.2794444951
 C          0.2807453812       -1.3517597537       -0.1282458372
 C          0.6038419194       -0.0153477315       -0.3533948217
 C          1.9744039379        0.4237179879       -0.5852366708
 C          3.0879552494       -0.1919089115       -0.2209969106
 F          3.2007105842       -1.3198123075        0.4689596940
 F          4.3040132686        0.2753035599       -0.4909503587
 C         -0.4238799247        0.9401826004       -0.4190716020
 O         -0.1212979284        2.2672698251       -0.6273116485
 C          0.4014174336        2.9620697866        0.4982832259
 C         -0.6310242989        3.1707357937        1.5998817925
 H         -4.7696043952        2.2440663845       -0.0845719173
 H         -4.3890723260        0.5928923389        0.5976759145
 H         -2.5084404948        2.4596797732       -0.9423635983
 H         -3.0897556181       -1.1133823028       -0.0180066636
 H          1.0521897711       -2.1021136743       -0.0833963980
 H          2.0938751149        1.3530351562       -1.1237876955
 H          0.7298472797        3.9233870370        0.0957658283
 H          1.2715283163        2.4293740034        0.9049817364
 H         -1.4966268072        3.7030677749        1.2144243181
 H         -0.1883221681        3.7510297242        2.4046307126
 H         -0.9616566850        2.2132931614        1.9975146541
  27
        -49.34094940
 C         -3.1965963629        2.2814900478       -1.1303119758
 C         -3.0857234333        1.2556916849       -0.2972497576
 C         -1.8985422861        0.4089940137       -0.1532384116
 C         -2.1033193407       -0.9464277970        0.0989518764
 C         -1.0339622643       -1.8202458081        0.1537394195
 Cl        -1.3192552059       -3.4979913174        0.4538869478
 C          0.2600793619       -1.3745235304       -0.0402072134
 C          0.4978011319       -0.0183359807       -0.2555145443
 C          1.8312677429        0.5247789115       -0.4602213731
 C          2.9985304800       -0.0831141711       -0.3193612573
 F          3.2320002104       -1.3371061224        0.0483793143
 F          4.1631890108        0.5255625416       -0.5318469975
 C         -0.5855667730        0.8814842348       -0.2929232926
 O         -0.3104104314        2.2158833848       -0.4833077478
 C         -0.5676235575        3.0636005705        0.6289716910
 C          0.3963328672        2.8190579175        1.7848490982
 H         -4.1159656064        2.8350445378       -1.2183263890
 H         -2.3785296006        2.5988970780       -1.7536553356
 H         -3.9403536976        0.9411038244        0.2893796887
 H         -3.1087425009       -1.3173849932        0.2253985472
 H          1.0737508586       -2.0791163001       -0.0161446180
 H          1.8693824094        1.5611785642       -0.7619637382
 H         -1.6014368206        2.9398852778        0.9726357511
 H         -0.4446751728        4.0750924087        0.2349842100
 H          0.2894675150        1.8025689692        2.1587263542
 H          0.1778757594        3.5134306606        2.5912588442
 H          1.4245908025        2.9657847823        1.4640237942
  27
        -49.34033673
 C         -4.0522921593        1.3968640155       -0.0217991754
 C         -2.8327372486        1.4353372922        0.4970858155
 C         -1.7810648752        0.4483667060        0.2573877469
 C         -2.0824316849       -0.8780501070       -0.0394243602
 C         -1.0642706736       -1.7959680998       -0.2205619981
 Cl        -1.4593067410       -3.4385951064       -0.5845119428
 C          0.2642349233       -1.4309137659       -0.1018251215
 C          0.5939958365       -0.1082188890        0.1912761569
 C          1.9632806642        0.3566765058        0.3437783630
 C          3.0867876385       -0.2985474623        0.0971794885
 F          3.2290278585       -1.5376158250       -0.3562739932
 F          4.2925719519        0.2367278924        0.2716109840
 C         -0.4367101033        0.8311073214        0.3671784083
 O         -0.1101550224        2.1346730444        0.6647544714
 C         -0.2010217433        3.0352685837       -0.4344543740
 C          0.0952709106        4.4345784178        0.0760390602
 H         -4.7819115938        2.1557845085        0.2020430423
 H         -4.3658188840        0.6201481762       -0.6988495214
 H         -2.5438757790        2.2510196243        1.1473506322
 H         -3.1108020830       -1.1946878401       -0.1032586666
 H          1.0324718530       -2.1741454471       -0.2315045106
 H          2.0738531891        1.3688238015        0.7053485551
 H         -1.2055569137        2.9891566018       -0.8768315163
 H          0.5271167239        2.7438070835       -1.2059947935
 H         -0.6276942413        4.7142628543        0.8373323493
 H          0.0424909322        5.1440466167       -0.7445867109
 H          1.0887803142        4.4695069827        0.5145810170
  27
        -49.34030428
 C         -3.1497638438        2.3238665241        1.0670996591
 C         -3.0397862399        1.2584420831        0.2848564234
 C         -1.8683083605        0.3913311215        0.1739214263
 C         -2.0754784150       -0.9411313131       -0.1832748914
 C         -1.0125121104       -1.8181518409       -0.2819039346
 Cl        -1.3012475917       -3.4632043539       -0.7246742364
 C          0.2797626974       -1.4028439024       -0.0176149567
 C          0.5177560293       -0.0747190720        0.3267163067
 C          1.8493449046        0.4028637998        0.6804811710
 C          3.0112151432       -0.1302395960        0.3379836493
 F          3.2204298399       -1.1869236942       -0.4369678040
 F          4.1846824983        0.3635302624        0.7247784971
 C         -0.5555208577        0.8317818190        0.4000120870
 O         -0.3066727660        2.1507196642        0.7043235179
 C          0.2630292761        2.9233309703       -0.3447760012
 C         -0.7153404873        3.1826817296       -1.4842652553
 H         -4.0613137683        2.8970237385        1.1009911833
 H         -2.3442259209        2.6523520998        1.6989552098
 H         -3.8867967384        0.9408180522       -0.3110666466
 H         -3.0785308243       -1.2899124161       -0.3748827689
 H          1.0897738811       -2.1111068570       -0.0653268392
 H          1.8916493198        1.2863929851        1.3014708181
 H          1.1644776096        2.4329667962       -0.7362961499
 H          0.5490808133        3.8633765770        0.1331976427
 H         -0.9994529685        2.2465044730       -1.9604594848
 H         -0.2475001152        3.8252203687       -2.2249662285
 H         -1.6129250853        3.6660777733       -1.1077031103
  27
        -49.33927616
 C         -3.1507332260        2.2330554393        1.0056654448
 C         -3.0435834599        1.1998865280        0.1813265380
 C         -1.8746052253        0.3267868199        0.0585563506
 C         -2.0924395151       -1.0127107606       -0.2600019901
 C         -1.0327276403       -1.8966915495       -0.3379462718
 Cl        -1.3344734671       -3.5547508447       -0.7185543647
 C          0.2653106149       -1.4776065774       -0.1128429707
 C          0.5158814733       -0.1371303621        0.1755051888
 C          1.8522674845        0.3841196335        0.4161439922
 C          3.0153687575       -0.2271556076        0.2552290420
 F          3.2394118255       -1.4635300567       -0.1718930349
 F          4.1835925949        0.3591666731        0.5057518445
 C         -0.5590069712        0.7677463027        0.2571818649
 O         -0.2823236770        2.0882985052        0.5306387640
 C         -0.3122253348        2.9413045834       -0.6084962066
 C         -0.0653494089        4.3649680927       -0.1406799056
 H         -4.0568627885        2.8125173836        1.0609830360
 H         -2.3447858051        2.5275512090        1.6549019245
 H         -3.8880976148        0.9087581341       -0.4316107322
 H         -3.0993337129       -1.3634029272       -0.4264483333
 H          1.0707246411       -2.1900933085       -0.1665878728
 H          1.8980094553        1.4038372774        0.7703233429
 H         -1.2862622291        2.8639330453       -1.1093609951
 H          0.4672617390        2.6277731287       -1.3189290385
 H         -0.8511730343        4.6734437266        0.5429731485
 H         -0.0526814262        5.0351645960       -0.9952001334
 H          0.8884133636        4.4282616527        0.3760385745
  27
        -49.33858973
 C         -3.6561933857        1.5940188100       -0.7203792919
 C         -2.3409419083        1.4896263998       -0.8569547735
 C         -1.5217403963        0.3777005283       -0.3831701756
 C         -2.0616834977       -0.8832521317       -0.1452282876
 C         -1.2575871899       -1.9093818882        0.3140586764
 Cl        -1.9504574223       -3.4604303777        0.6359631224
 C          0.0979135678       -1.7183165778        0.5069418518
 C          0.6692930306       -0.4776845578        0.2354033803
 C          2.1204295729       -0.3434202699        0.3878684068
 C          2.9271721982        0.2706042576       -0.4621301891
 F          2.6037489587        0.8681229978       -1.5942077114
 F          4.2461498963        0.3441933510       -0.2880616841
 C         -0.1460957121        0.5848770796       -0.1759248112
 O          0.3746197929        1.8366387040       -0.3923397076
 C          0.7788932990        2.5511605570        0.7659773014
 C         -0.4039215165        2.9880558469        1.6236461992
 H         -4.1905471737        2.4492749806       -1.0964272566
 H         -4.2506842852        0.8464536381       -0.2227783244
 H         -1.7801558819        2.2821195711       -1.3329407993
 H         -3.1098337314       -1.0616696595       -0.3214387288
 H          0.7202393650       -2.5342620492        0.8391098227
 H          2.5843287523       -0.8352746575        1.2299678088
 H          1.3126069240        3.4210852853        0.3764713865
 H          1.4714448526        1.9498285571        1.3700593243
 H         -1.0960523118        3.5857972370        1.0364425897
 H         -0.0467360405        3.5801772302        2.4615248958
 H         -0.9359330144        2.1194557412        2.0070829883
  27
        -49.33743550
 C         -3.4756492154        1.7950528385        0.4117948952
 C         -2.4717897659        1.5479415022       -0.4148814647
 C         -1.5427030805        0.4164949596       -0.2689118575
 C         -2.0915310885       -0.8480152441       -0.0820908365
 C         -1.2868057011       -1.9719369240       -0.0837369692
 Cl        -1.9939019844       -3.5354998854        0.1274341746
 C          0.0739488613       -1.8550440961       -0.2882728895
 C          0.6547780390       -0.5963141001       -0.4136106571
 C          2.1002929713       -0.5468074629       -0.6360564075
 C          2.9784400998        0.3165662102       -0.1562790077
 F          2.7753170153        1.3168227135        0.6846007865
 F          4.2806732071        0.2486103118       -0.4325464023
 C         -0.1499156829        0.5575934299       -0.3871679836
 O          0.4936378634        1.7450789968       -0.5575650752
 C          0.1108397788        2.8883296741        0.1981120472
 C          0.0094496420        2.6249895034        1.6944102463
 H         -4.1587477797        2.6106338614        0.2485935059
 H         -3.6409680255        1.1998103562        1.2947736782
 H         -2.3185831794        2.1616753949       -1.2938775879
 H         -3.1608557400       -0.9468029070        0.0185824091
 H          0.6950494272       -2.7359833597       -0.3256590795
 H          2.5131759131       -1.3334194199       -1.2513422680
 H         -0.8310261857        3.3077554456       -0.1704268024
 H          0.9137212422        3.6017309206       -0.0041458806
 H         -0.7888805783        1.9179772212        1.9082143021
 H         -0.2059549513        3.5589489435        2.2056960777
 H          0.9454784123        2.2240163431        2.0715829926
