47
 energy: -56.030457609591 gnorm: 0.000033311233 xtb: 6.4.1 (23d549d)
C        -0.05587071560000   -2.88728763600000   -2.60826218640000
C         0.15756309970000   -2.69905250030000   -1.30804319670000
C         0.80759020840000   -1.55348400800000   -0.73091115590000
C         1.38560125130000   -0.46525695400000   -1.33374148300000
C         1.90378224750000    0.49645842590000   -0.44528788330000
C         2.48780664040000    1.78752470390000   -0.93335476450000
C         1.68225532640000    3.02513443580000   -0.50248679780000
C         0.49087458370000    3.35419298970000   -1.40515899190000
C        -0.57863230200000    2.26758776630000   -1.51613696480000
C        -1.23817903320000    1.89819908350000   -0.19032479770000
C        -2.24068265580000    0.76013709490000   -0.37018243810000
C        -2.82672824700000    0.29875779510000    0.96186894940000
C        -3.90197469900000   -0.77765141130000    0.80348001940000
C        -3.37447450400000   -2.14678295040000    0.36987054150000
C        -2.59546772610000   -2.85871367300000    1.46945974300000
C         1.75216073620000    0.12086510460000    0.87584627390000
C         2.14833778410000    0.70839565510000    2.12998355560000
C         2.96888394020000    1.73498805800000    2.34217921480000
S         0.92112327690000   -1.40729414880000    0.99137046140000
H        -0.55507797510000   -3.76845722500000   -2.97040978920000
H         0.25711505150000   -2.17413633200000   -3.35118679540000
H        -0.18099247930000   -3.43894269670000   -0.59466413450000
H         1.44531184320000   -0.35844062680000   -2.40322120250000
H         2.54310609450000    1.75914219400000   -2.02364944030000
H         3.51090666180000    1.87787804250000   -0.55949811810000
H         2.34948174000000    3.89107698850000   -0.51794665910000
H         1.33921762220000    2.89768017480000    0.52381543250000
H         0.86295948280000    3.57158554100000   -2.41043804000000
H         0.02629788250000    4.26806773750000   -1.02484720680000
H        -0.14076901720000    1.37016008410000   -1.95243950320000
H        -1.35095632960000    2.61918410280000   -2.20593919560000
H        -1.74295136730000    2.77336042920000    0.22615718550000
H        -0.47823231580000    1.58292194980000    0.52559882460000
H        -1.73636087270000   -0.07602909810000   -0.85873148670000
H        -3.04948871990000    1.08815027930000   -1.02819836190000
H        -3.27209994330000    1.16161974450000    1.46416793580000
H        -2.02317436890000   -0.07122428470000    1.60069882240000
H        -4.63238879880000   -0.43131587000000    0.06765081970000
H        -4.42645852120000   -0.89561973100000    1.75518212900000
H        -2.74247846610000   -2.03857391310000   -0.51321322250000
H        -4.22732993160000   -2.76909203950000    0.08670839810000
H        -1.69439853970000   -2.31010111260000    1.73020268410000
H        -2.30311753550000   -3.85419597010000    1.14192155820000
H        -3.20690419610000   -2.96058778320000    2.36382100110000
H         1.72664180380000    0.20109062210000    2.99058523110000
H         3.45045735340000    2.28165100240000    1.55361651830000
H         3.19238750020000    2.05396882630000    3.34565614250000
