21
 energy: -38.958649442724 gnorm: 0.000100429216 xtb: 6.4.1 (23d549d)
C         3.05066137150000    2.46189898190000    0.05528928300000
C         2.72692332700000    1.17992044140000   -0.06072688040000
C         1.38214182170000    0.61796441100000   -0.03542475390000
C         0.22647730480000    1.38867174040000   -0.04309407070000
C        -1.06553688550000    0.86233145680000   -0.01993649040000
C        -2.19424921860000    1.78502570370000   -0.03012791630000
C        -3.48847653340000    1.49408227180000    0.03643447770000
C        -1.17403857080000   -0.53093607030000    0.00831492260000
F        -2.36448687430000   -1.15390201390000    0.02709876890000
C        -0.03747884340000   -1.32034749070000    0.01096655820000
F        -0.14651179010000   -2.67506700640000    0.03475716930000
C         1.24491905330000   -0.78138736340000   -0.01134252660000
O         2.33300987450000   -1.58300407130000   -0.00677048650000
H         4.07856808950000    2.77859024240000    0.02553732440000
H         2.32162495740000    3.24242874190000    0.18952801880000
H         3.50786390580000    0.44130053060000   -0.17534524440000
H         0.32851434940000    2.46173700760000   -0.07379795190000
H        -1.89647420770000    2.82429703500000   -0.09686868200000
H        -3.86984022220000    0.49230441410000    0.10903195200000
H        -4.22539573530000    2.27917665850000    0.02142248260000
H         2.05169621030000   -2.50874035890000    0.01032913510000
