  46
        -51.57985529
 C         -4.0604843658       -0.4655350838        1.1671802029
 C         -2.7906000592       -0.3241731189        0.4000589191
 C         -1.5401875014       -0.1112361803        0.8951431985
 N         -0.6278702738       -0.0318308808       -0.1315296300
 Si         1.1126248420        0.1482694926        0.1062974491
 C          1.4024421054        1.4904072947        1.4691092637
 C          0.3708534704        2.6182457892        1.4128011879
 C          1.4749502535        0.9490265792        2.8961755573
 C          1.8083437963       -1.5628440486        0.6842821195
 C          0.8372292265       -2.2967834593        1.6090807268
 C          2.1755868457       -2.4928927216       -0.4716412746
 C          2.0716461941        0.7478067526       -1.4618031174
 C          1.7363386940        0.0566678710       -2.7851182510
 C          1.9824466934        2.2574517232       -1.6873495288
 C         -1.3368936480       -0.2106166049       -1.2944669417
 C         -2.6588339657       -0.3887438720       -1.0178805687
 C         -3.7680305674       -0.6128758700       -1.9878610373
 H         -3.8717478274       -0.3768127818        2.2344039862
 H         -4.5194739259       -1.4349208766        0.9726431841
 H         -4.7732112472        0.3048762729        0.8726142240
 H         -1.2286731148       -0.0216461585        1.9154870158
 H          2.3833778991        1.9335442421        1.2627806984
 H         -0.6207173067        2.2445965925        1.6530137024
 H          0.3277697963        3.0666346465        0.4250977234
 H          0.6235906178        3.3975864020        2.1310945920
 H          0.5168658906        0.5440621901        3.2116232423
 H          1.7365753581        1.7501899011        3.5869224314
 H          2.2261666196        0.1691013160        2.9849217173
 H          2.7288461846       -1.3782114185        1.2489513866
 H         -0.0992688138       -2.4975243124        1.0942665207
 H          0.6188844042       -1.7150593071        2.4988616887
 H          1.2628747348       -3.2487002492        1.9246742042
 H          1.2974594626       -2.7174600241       -1.0732154505
 H          2.5657261577       -3.4344141012       -0.0862111217
 H          2.9364379628       -2.0495230241       -1.1076878594
 H          3.1213482205        0.5201953379       -1.2390819480
 H          0.8362610822        0.4870790612       -3.2166684635
 H          1.5881720185       -1.0113516105       -2.6685137047
 H          2.5434056952        0.2116836190       -3.5010214983
 H          0.9525878114        2.5556194659       -1.8710493772
 H          2.5741477582        2.5391908824       -2.5578997177
 H          2.3585446964        2.8129110200       -0.8337076609
 H         -0.8471591191       -0.2043185351       -2.2443028968
 H         -3.3860149576       -0.6244526346       -3.0058313493
 H         -4.5159749257        0.1756279964       -1.9037321553
 H         -4.2635531694       -1.5633722537       -1.7894443540
