  51
        -58.14060622
 C          6.1895353231       -2.2840630497        0.2292589952
 C          4.9317445902       -2.3341231607        1.0888868838
 C          3.7225472301       -1.6644079737        0.4342688021
 C          3.8652251739       -0.1479141156        0.3176455317
 C          2.6511148958        0.5201022390       -0.3282568159
 C          1.4097115073        0.5170094909        0.5716071886
 C          0.2606749110        1.1998536605       -0.1053931781
 C         -0.0131299161        2.5232436273        0.0644482617
 C          0.6785714059        3.5132112467        0.9383224573
 S         -1.3684172349        3.0187828632       -0.8972170768
 C         -1.5556796735        1.4174567778       -1.5406155671
 C         -2.6479729224        1.1514664106       -2.5174160137
 C         -0.6255436315        0.5618968764       -1.0299777493
 C         -0.5679507440       -0.8930928986       -1.3921720833
 C         -1.7043223141       -1.6955650669       -0.7459755921
 C         -1.6242473725       -1.6834612256        0.7781955066
 C         -2.7664736929       -2.4472517588        1.4481592979
 C         -4.1222702424       -1.7583237614        1.3075711272
 C         -5.2062192597       -2.4893197318        2.0905503672
 H          6.9924280078       -2.8440289186        0.7036151379
 H          6.5292303218       -1.2611788347        0.0895369940
 H          5.9990730626       -2.7207555320       -0.7489503475
 H          5.1301807514       -1.8559214190        2.0509627277
 H          4.6843426499       -3.3802338460        1.2861136870
 H          2.8391415387       -1.8980153345        1.0320800552
 H          3.5724666534       -2.0894228704       -0.5614570586
 H          4.7437713758        0.0818844942       -0.2877517399
 H          4.0255263198        0.2774082178        1.3115454581
 H          2.4184500459        0.0177290771       -1.2699421219
 H          2.9005504264        1.5567527339       -0.5671676762
 H          1.6443080015        1.0345552399        1.5036350328
 H          1.1310340211       -0.5067935136        0.8191498566
 H          1.7314366931        3.5986536310        0.6694596571
 H          0.6204585548        3.2119272166        1.9851301034
 H          0.2149845087        4.4910313493        0.8355493650
 H         -2.8372410326        2.0366136974       -3.1216523740
 H         -3.5755552495        0.8940394719       -2.0030848878
 H         -2.3809189255        0.3262468403       -3.1747132622
 H          0.3890106525       -1.3138530101       -1.0838924805
 H         -0.6398317945       -0.9963457253       -2.4786974760
 H         -1.6567396500       -2.7280238968       -1.1015658663
 H         -2.6574903594       -1.2748497727       -1.0645709264
 H         -1.6278354185       -0.6492599450        1.1300370412
 H         -0.6772098298       -2.1363776331        1.0841209860
 H         -2.5395766104       -2.5501591860        2.5125099895
 H         -2.8263728600       -3.4536171225        1.0260324800
 H         -4.4106761011       -1.7181827171        0.2558635387
 H         -4.0416066800       -0.7309402918        1.6704122911
 H         -5.3085772292       -3.5125134854        1.7348783296
 H         -6.1653923074       -1.9892331433        1.9770663008
 H         -4.9585013329       -2.5196395164        3.1495632990
