  35
        -43.37158599
 C         -1.5028091397       -3.4787123208        0.5287834266
 C         -2.1495921611       -2.3253174046        0.6800475574
 C         -1.6731221048       -1.0428797294        0.2364709221
 C         -0.5386767526       -0.7153070208       -0.4604207929
 C         -0.3770276099        0.6614336344       -0.7081511237
 C          0.8225066966        1.1829241082       -1.4348103972
 C          1.9369932834        1.6044336097       -0.4644166663
 C          2.4839165758        0.4498011116        0.3756413166
 C          3.3251954361       -0.5387647300       -0.4296272769
 C          3.8411301912       -1.7039559873        0.4166303671
 C          2.7524990797       -2.7124764203        0.7665984170
 C         -1.4152253561        1.4132756718       -0.1953293434
 C         -1.7220793665        2.8199928058       -0.2107237793
 C         -0.9414968229        3.8411273520       -0.5578006073
 S         -2.5903406452        0.3869955843        0.5860266022
 H         -1.9190023629       -4.4036860051        0.8864837348
 H         -0.5419947936       -3.5392392714        0.0481651640
 H         -3.1111320226       -2.3086645698        1.1768959379
 H          0.1677663789       -1.4511815712       -0.8002358548
 H          0.5391758461        2.0346201121       -2.0553311754
 H          1.1974974094        0.4018066618       -2.0980438540
 H          1.5421201298        2.3651762429        0.2125655783
 H          2.7523368290        2.0529568738       -1.0375212972
 H          1.6488710346       -0.0677850010        0.8493804258
 H          3.1071291061        0.8648115753        1.1719499184
 H          4.1775815677       -0.0037544328       -0.8565544428
 H          2.7419468113       -0.9411562400       -1.2598321479
 H          4.2846910606       -1.3135046652        1.3352812243
 H          4.6296625370       -2.2198777432       -0.1368111775
 H          1.9545795307       -2.2483496052        1.3409204300
 H          3.1660630690       -3.5259724577        1.3584918635
 H          2.3248899516       -3.1369389594       -0.1400512659
 H         -2.7298955682        3.0381900728        0.1242507847
 H          0.0791419083        3.7320466420       -0.8724773183
 H         -1.3199775214        4.8485101612       -0.5241302753
