  40
        -55.55641500
 C         -5.0282641705       -1.2464870774        2.1943138682
 C         -4.2345228095       -0.6720290729        1.0586623104
 C         -4.7193481465        0.3838393998        0.3087501352
 C         -3.9787687310        0.9115905311       -0.7452242839
 C         -4.5246500077        2.0559189802       -1.5450093383
 C         -2.7423049997        0.3678141523       -1.0327143113
 C         -2.2348149036       -0.6961027045       -0.2848869514
 O         -1.0116510676       -1.1521559576       -0.6875529084
 C         -0.3379896922       -2.1281032623        0.0753717606
 C          0.2762555435       -1.5645239489        1.3617650852
 C          1.1927238422       -0.3682015577        1.1035546684
 C          2.4804003697       -0.7377628849        0.3708592517
 C          3.4006482335        0.4716895681        0.2208918521
 C          4.6856556850        0.1103077714       -0.5347326325
 C          5.5689693696        1.3319737282       -0.6951747328
 O          6.5885043062        1.5110048515       -0.0972025891
 O          5.1116809049        2.2481785697       -1.5695260501
 C         -2.9867461084       -1.2115421702        0.7596392135
 H         -5.9922126551       -0.7527685459        2.2837810986
 H         -4.4890930154       -1.1262048967        3.1335667213
 H         -5.1959176771       -2.3118475932        2.0412571388
 H         -5.6864463997        0.8067091131        0.5397948144
 H         -4.6635470491        2.9290973928       -0.9084081066
 H         -5.4942955023        1.7949984349       -1.9665578151
 H         -3.8516669373        2.3209968342       -2.3560033163
 H         -2.1428594526        0.7496486491       -1.8448454587
 H          0.4491765734       -2.4964629305       -0.5874880222
 H         -1.0011596758       -2.9701849929        0.3099772795
 H          0.8308402725       -2.3645058597        1.8558336405
 H         -0.5268917590       -1.2444009623        2.0281529760
 H          1.4494256557        0.0868241810        2.0628157914
 H          0.6425980549        0.3727107946        0.5197393701
 H          2.2405846049       -1.1266755371       -0.6201970569
 H          3.0018987690       -1.5224876087        0.9233438398
 H          3.6668000429        0.8542907114        1.2083063350
 H          2.8612815604        1.2646062037       -0.3052853190
 H          4.4385255520       -0.2960191655       -1.5196466558
 H          5.2416129181       -0.6426521241        0.0241339836
 H          4.2792020045        1.9796298226       -1.9802374000
 H         -2.6305759418       -2.0385540547        1.3545379700
