  26
        -40.95973963
 C         -4.0819588396        1.7321634394        0.3263668040
 C         -3.4161207894        0.7536606080       -0.2720459445
 C         -1.9753446320        0.5327215470       -0.1567664502
 C         -1.1170500958        1.6323800425       -0.0881086662
 C          0.2541318756        1.4722858189       -0.0536343285
 C          0.7768346621        0.1941021721       -0.1130597301
 S          2.5517200856       -0.0389660144       -0.0560864244
 C          2.8886119670       -0.1552574815        1.7283759288
 O          2.8802268456       -1.3036102656       -0.6566207571
 O          3.2002432218        1.1420417904       -0.5578503744
 C         -0.0419002520       -0.9092227857       -0.1924697338
 C         -1.4293712805       -0.7647861052       -0.1949621241
 C         -2.2413464782       -1.9801125491       -0.2131082453
 C         -3.3880962455       -2.1536732399        0.4305523912
 H         -5.1411682454        1.8617052418        0.1853784682
 H         -3.6025346874        2.4250704292        0.9977642643
 H         -3.9428731804        0.0510192056       -0.9050690064
 H         -1.5408194754        2.6250218052       -0.0892211276
 H          0.9269140871        2.3142725454       -0.0170882524
 H          2.3394694417       -1.0020682506        2.1185511806
 H          2.5712395938        0.7702225764        2.1905245321
 H          3.9541763179       -0.2995983640        1.8553982094
 H          0.4122186556       -1.8867508740       -0.2528898540
 H         -1.8063480793       -2.8048005153       -0.7639145302
 H         -3.8273825251       -1.3807005605        1.0383874883
 H         -3.9168672281       -3.0908804801        0.3909124614
  26
        -40.95970369
 C         -4.3069548031        0.7678990081       -0.6334567386
 C         -3.3335615943        1.4053866671        0.0035007758
 C         -1.9417002878        0.9658770024        0.0874504089
 C         -0.9488938386        1.9472093262        0.0342655228
 C          0.3906871958        1.6129651950        0.0372162708
 C          0.7400077074        0.2779011339        0.1150166407
 S          2.4705622677       -0.1833466525        0.0791019753
 C          2.8062618516       -0.3533480956       -1.7015839734
 O          3.2619798594        0.9070096444        0.5811156157
 O          2.6277639295       -1.4763501125        0.6882344910
 C         -0.2145359402       -0.7092376294        0.2078146009
 C         -1.5719819972       -0.3884454893        0.1988085218
 C         -2.5654880650       -1.4447670306        0.3821189192
 C         -2.4395776801       -2.6860034677       -0.0673311006
 H         -5.3054989385        1.1686113450       -0.6771039153
 H         -4.1389696157       -0.1596169343       -1.1542529518
 H         -3.5357224020        2.3653224373        0.4629292059
 H         -1.2433028282        2.9849131373       -0.0266731579
 H          1.1674832995        2.3600771619        0.0034313771
 H          2.6141124960        0.6017971599       -2.1722847789
 H          2.1567250136       -1.1255616679       -2.0921825242
 H          3.8456062263       -0.6339252491       -1.8174701438
 H          0.1113852940       -1.7304150726        0.3281645999
 H         -3.4501541218       -1.1581211625        0.9361997279
 H         -1.5925356947       -3.0005225007       -0.6536936768
 H         -3.1923795929       -3.4320483667        0.1202141205
  26
        -40.95965597
 C         -4.0999125929        1.7297613154        0.2253092235
 C         -3.3985942431        0.7646145690       -0.3539691658
 C         -1.9693052346        0.5337062511       -0.1496218258
 C         -1.1145078439        1.6258789395        0.0145145147
 C          0.2507351879        1.4576156203        0.1356237394
 C          0.7725032863        0.1793976585        0.0696241916
 S          2.5465388365       -0.0533996002        0.1510561272
 C          3.0596606071        0.1153641567       -1.5869338115
 O          3.1310013791        1.0280817500        0.8965377363
 O          2.8268935131       -1.3998927492        0.5706856628
 C         -0.0427786702       -0.9171423437       -0.0948460379
 C         -1.4267544256       -0.7654472853       -0.1826661457
 C         -2.2407269275       -1.9757991732       -0.2760564580
 C         -3.4279105006       -2.1541902451        0.2880649789
 H         -5.1474649428        1.8669147230        0.0191275928
 H         -3.6641887811        2.4010120303        0.9464132147
 H         -3.8845836671        0.0809155534       -1.0385665650
 H         -1.5351502101        2.6198264910        0.0260724918
 H          0.9184897717        2.2914929588        0.2828061938
 H          2.7785683694        1.1037814829       -1.9257339539
 H          2.5624939728       -0.6564444240       -2.1595581380
 H          4.1342318239       -0.0110460536       -1.6280961518
 H          0.4081859571       -1.8977705592       -0.1171290907
 H         -1.7735401068       -2.7954429486       -0.8080056424
 H         -3.9022441096       -1.3893836300        0.8793180437
 H         -3.9552890454       -3.0889035783        0.2003522955
  26
        -40.95964545
 C         -4.0566168650        2.0544854933       -0.3663906362
 C         -3.4593420437        0.9882587123        0.1481893984
 C         -2.0261911111        0.7079703226        0.0409397750
 C         -1.1089779942        1.7581602694        0.0837580891
 C          0.2512700747        1.5206412812        0.0319910400
 C          0.6955896739        0.2158059458       -0.0622309980
 S          2.4558528523       -0.1148229715       -0.0810274417
 C          2.8728286365       -0.1888796149        1.6891353657
 O          2.6857383984       -1.4157470660       -0.6489063824
 O          3.1436467154        1.0100347247       -0.6543913946
 C         -0.1855417185       -0.8411770289       -0.1150509033
 C         -1.5599984241       -0.6169541609       -0.0668525938
 C         -2.4942701088       -1.7372534904       -0.1784097726
 C         -2.2543143208       -2.9649804316        0.2621224483
 H         -5.1141626564        2.2193333621       -0.2516083587
 H         -3.5187449986        2.7906897375       -0.9399833465
 H         -4.0424607783        0.2557043191        0.6905509305
 H         -1.4740098698        2.7693864861        0.1793469569
 H          0.9717537858        2.3228607716        0.0489522371
 H          2.3014221878       -0.9925754265        2.1344655414
 H          2.6252081888        0.7664401555        2.1327845014
 H          3.9346794678       -0.3840248486        1.7713234078
 H          0.2126790804       -1.8363572835       -0.2344974000
 H         -3.4366193768       -1.5159992275       -0.6615308881
 H         -1.3400744975       -3.2247494881        0.7686415156
 H         -2.9739765309       -3.7564868334        0.1430495604
  26
        -40.95902528
 C         -4.0484182897        2.0502698528        0.1562060930
 C         -3.4429636830        1.0129208858       -0.4053877599
 C         -2.0199130081        0.7067957028       -0.2555772210
 C         -1.1029614775        1.7577762681       -0.1846040736
 C          0.2492688566        1.5228362273       -0.0323291226
 C          0.6902402924        0.2156993265        0.0467259798
 S          2.4435561165       -0.1213322469        0.1871649844
 C          2.9791163735       -0.2268879608       -1.5488906005
 O          3.0965105885        1.0093146229        0.7893212554
 O          2.6269843982       -1.4138697875        0.7905854846
 C         -0.1878887213       -0.8416924705       -0.0189525065
 C         -1.5575776056       -0.6216383224       -0.1649522619
 C         -2.4723895705       -1.7615855982       -0.1994175761
 C         -2.2716971500       -2.9016552948        0.4480661028
 H         -5.0981767936        2.2375378673        0.0092796170
 H         -3.5278515083        2.7359827130        0.8033853252
 H         -4.0214195473        0.3309839994       -1.0138295313
 H         -1.4645402757        2.7714082741       -0.2669120887
 H          0.9655311110        2.3259803777        0.0366236361
 H          2.7720597976        0.7240030724       -2.0218767250
 H          2.4308547015       -1.0320075919       -2.0200969666
 H          4.0419931083       -0.4333164791       -1.5556250977
 H          0.2079005046       -1.8427566995        0.0469303701
 H         -3.3723439321       -1.6405561759       -0.7867082971
 H         -1.4138910882       -3.0600420814        1.0793463606
 H         -2.9752703223       -3.7140551473        0.3864139489
  26
        -40.95878657
 C         -4.0032257943        2.0141164258       -0.6097356645
 C         -3.4603958665        1.0390773514        0.1063034231
 C         -2.0313291080        0.7247385382        0.1225509629
 C         -1.1073631442        1.7691207718        0.0456064613
 C          0.2520893385        1.5270826181        0.0438017314
 C          0.6929096196        0.2200208666        0.1267157178
 S          2.4504353552       -0.1232343433        0.0878074523
 C          2.7940737775       -0.2594808457       -1.6943534092
 O          3.1678749164        1.0145406135        0.5955537274
 O          2.6946039881       -1.4066475142        0.6887404083
 C         -0.1916727015       -0.8305159381        0.2120347513
 C         -1.5682834089       -0.6038460199        0.2095403443
 C         -2.4880791438       -1.7376097746        0.2798252780
 C         -2.2327853065       -2.9455472996       -0.2050581755
 H         -5.0606931093        2.2128662731       -0.5814492393
 H         -3.4192039484        2.6352708884       -1.2680927373
 H         -4.0980666360        0.4201822497        0.7225553261
 H         -1.4707523465        2.7847421958        0.0083017460
 H          0.9752553292        2.3261401117        0.0063503795
 H          2.5462699017        0.6865544912       -2.1573135284
 H          2.1901293375       -1.0649179533       -2.0910076284
 H          3.8478334103       -0.4782613586       -1.8130090966
 H          0.2057115222       -1.8276047137        0.3169809697
 H         -3.4421235316       -1.5546835089        0.7543188568
 H         -1.3157623867       -3.1782423005       -0.7192539434
 H         -2.9454781204       -3.7474426051       -0.1183841927
  26
        -40.95654024
 C         -4.1685685762        0.8662477055       -0.7889402691
 C         -3.3455682243        1.0944834882        0.2229880916
 C         -1.9329815686        0.6993338824        0.2563750939
 C         -1.0101369246        1.6622388318        0.6690120054
 C          0.3492549522        1.4186621423        0.6300951491
 C          0.7895633530        0.1933274639        0.1689210908
 S          2.5484602357       -0.1216788279        0.0431875482
 C          2.9552739810        0.5061084199       -1.6158571282
 O          3.2430861843        0.6855371141        1.0090827198
 O          2.7756655613       -1.5414754714        0.0519835877
 C         -0.0983792163       -0.7861365658       -0.2167050389
 C         -1.4734034591       -0.5631046289       -0.1558892670
 C         -2.3552849524       -1.6938620312       -0.4638967273
 C         -3.4072348905       -2.0496962446        0.2572927265
 H         -5.1825875104        1.2271522006       -0.7851851922
 H         -3.8588928434        0.3114075258       -1.6584139119
 H         -3.6769232048        1.6881558136        1.0661037457
 H         -1.3738624631        2.6216703271        1.0072172398
 H          1.0710211932        2.1499204888        0.9572397198
 H          2.7118534899        1.5600145947       -1.6448876328
 H          2.3761053950       -0.0547685247       -2.3374993657
 H          4.0153099569        0.3545848240       -1.7763757541
 H          0.2924111684       -1.7426877317       -0.5293687974
 H         -2.0367910455       -2.3093818587       -1.2960068132
 H         -3.7255745173       -1.4829306211        1.1157702059
 H         -3.9862073350       -2.9247143915        0.0173692999
  26
        -40.95632778
 C         -4.3312012210        0.9154764898       -0.3721974690
 C         -3.3687644879        1.2890671682        0.4606062026
 C         -1.9695513334        0.8718166602        0.3842317409
 C         -0.9930800240        1.8172515910        0.6986829017
 C          0.3556256728        1.5334475196        0.5848695519
 C          0.7342857971        0.2718060012        0.1686773064
 S          2.4424228308       -0.2507665756       -0.0419977343
 C          3.4981630163        1.1411589875        0.4658442283
 O          2.6851716804       -1.3468611856        0.8570818842
 O          2.6583055696       -0.4865634166       -1.4446572144
 C         -0.2095179944       -0.6921206601       -0.1130571335
 C         -1.5727677939       -0.4191096939       -0.0135837892
 C         -2.5429971753       -1.4864254296       -0.2496550145
 C         -2.3880452293       -2.4598392398       -1.1367518214
 H         -5.3365179232        1.2881160231       -0.2714100911
 H         -4.1462570109        0.2488952182       -1.1973616878
 H         -3.5869935681        2.0085468431        1.2407408201
 H         -1.3040739107        2.8013544478        1.0191175953
 H          1.0881846118        2.2879170878        0.8220304160
 H          3.2960463534        1.3697401655        1.5038798397
 H          3.3045248374        1.9817326550       -0.1872048991
 H          4.5200903849        0.8019419269        0.3479141892
 H          0.1345350925       -1.6752884924       -0.3925246505
 H         -3.4333352162       -1.4491648867        0.3652472870
 H         -1.5344279826       -2.5053783722       -1.7918848999
 H         -3.1234447173       -3.2370816882       -1.2545104687
