  26
        -48.71263313
 C          1.9041275526       -3.8229299180       -0.4143413417
 C          1.1303912787       -3.2003737196        0.4627400248
 C          0.7379014540       -1.7890822438        0.3875603821
 C         -0.5907943745       -1.4815015265        0.5512616045
 C         -1.0930004414       -0.1728000183        0.4056316092
 C         -2.5265061925        0.0517314660        0.5667494619
 C         -3.2685443278        0.9058084637       -0.1202330344
 F         -2.8882471376        1.6876222656       -1.1152650250
 F         -4.5767200556        1.0534509004        0.0789050565
 C         -0.1897057985        0.8293921695        0.1334544623
 F         -0.6117302482        2.1067767797        0.0417698727
 C          1.1940597190        0.5881842797        0.0058449637
 C          2.1019341116        1.6399792203       -0.2398210803
 C          3.4425065250        1.3917652680       -0.3259928570
 C          3.9272089914        0.0889217621       -0.1450889472
 C          3.0665525045       -0.9496810416        0.0853733787
 C          1.6732845025       -0.7427555905        0.1416328957
 H          2.1249269042       -4.8730741833       -0.3250692608
 H          2.3240715306       -3.3155092101       -1.2667892058
 H          0.6789099205       -3.7596344490        1.2731356323
 H         -1.2956256240       -2.2737189012        0.7586310410
 H         -3.0407944767       -0.5567759696        1.2953440938
 H          1.7143719367        2.6412449545       -0.3515550533
 H          4.1349267685        2.1979489702       -0.5158860908
 H          4.9915798301       -0.0905335169       -0.1816318338
 H          3.4531963096       -1.9433562730        0.2483575593
