  34
        -52.78081522
 C         -3.9352383459        2.8415002923        0.4177692779
 C         -3.7404261605        1.5347919253        0.5546904524
 C         -2.5711247025        0.7579655851        0.1647506199
 C         -2.6023107025       -0.6283907824        0.3310532749
 C         -1.5528153147       -1.4694457225       -0.0056561574
 C         -1.6113091965       -2.9144248820        0.1852272380
 C         -2.7048298753       -3.6360611150        0.3981087562
 C         -0.3761895480       -0.8962443701       -0.5363612972
 O          0.6270626643       -1.7516053181       -0.8591835126
 C          1.8271876312       -1.2321604149       -1.3911966577
 C          2.6163680072       -0.3824883526       -0.4235779451
 C          2.5213650333       -0.6011887095        0.9437843240
 C          3.2496226228        0.1758432302        1.8268199171
 C          4.0852772146        1.1711592426        1.3506920215
 C          4.1898071216        1.3884260911       -0.0129312819
 C          3.4560440562        0.6176848047       -0.8965242054
 C         -0.3123316234        0.4791162672       -0.7087568216
 C         -1.3893859527        1.2739955525       -0.3651765135
 F         -1.2328938811        2.6014697887       -0.5626575148
 H         -4.8544976758        3.2959677715        0.7473495281
 H         -3.2108202660        3.5052883455       -0.0171405037
 H         -4.5257027746        0.9350851654        1.0000504585
 H         -3.4931316911       -1.0641565656        0.7564924864
 H         -0.6525874096       -3.4100505952        0.1201877164
 H         -3.6907831617       -3.2056240374        0.4397321801
 H         -2.6515733350       -4.7030435062        0.5292279715
 H          1.6275892244       -0.6740034198       -2.3162282492
 H          2.4094541179       -2.1238574916       -1.6525085264
 H          1.8692675958       -1.3787424625        1.3140152330
 H          3.1641657134        0.0020099146        2.8891844216
 H          4.6531096835        1.7779662924        2.0400212607
 H          4.8393187550        2.1645654646       -0.3897929633
 H          3.5334413516        0.7929061037       -1.9606347348
 H          0.5672470691        0.9669728033       -1.0956767562
