32
 energy: -53.337675561345 gnorm: 0.000069003180 xtb: 6.4.1 (23d549d)
C         2.24186763670000    2.85106313290000    0.51010999270000
C         1.22873257010000    2.44878688310000   -0.24443273690000
C         0.59377800020000    1.13726165680000   -0.14929216510000
C        -0.78463241740000    1.03753751190000   -0.30676646280000
C        -1.46647786220000   -0.16188955070000   -0.13729009350000
C        -2.93947678600000   -0.15686632210000   -0.34694817920000
O        -3.60747165300000   -1.07607661390000   -0.75148122310000
O        -3.46943897690000    1.03986287730000   -0.04627935730000
C        -4.87105205940000    1.16008359980000   -0.23416034060000
C        -0.76189232910000   -1.32523877460000    0.22577334270000
C        -1.43425766650000   -2.59798094860000    0.46969138790000
C        -0.98325295440000   -3.53648038270000    1.29331360820000
C         0.62348691990000   -1.22658979280000    0.35085901070000
C         1.30095379770000   -0.03586870580000    0.14787981800000
C         2.78998153720000   -0.08302639590000    0.20173325920000
O         3.42874027070000   -0.59120707820000    1.08759228960000
O         3.33052626050000    0.44471300120000   -0.90392159030000
C         4.74832832870000    0.45161026920000   -0.97675779970000
H         2.65443335670000    3.84147908320000    0.42070998400000
H         2.68581134970000    2.21367653400000    1.25744809750000
H         0.77162554800000    3.13394615600000   -0.94683121800000
H        -1.34774643550000    1.92342016690000   -0.55908522490000
H        -5.13489919430000    2.16586226550000    0.08238389450000
H        -5.39960487050000    0.41697807970000    0.36660164470000
H        -5.12801816430000    1.00694338080000   -1.28457471220000
H        -2.36960428610000   -2.74091705800000   -0.04974207670000
H        -0.07795065290000   -3.42099886610000    1.86621058950000
H        -1.52315641120000   -4.45614588890000    1.43940010060000
H         1.19948108480000   -2.10958883590000    0.58155796210000
H         5.00375513400000    0.56469825020000   -2.02736467490000
H         5.15319935890000   -0.48034205010000   -0.57702982280000
H         5.14570072520000    1.28933961210000   -0.39935305840000
