  24
        -37.61291687
 C         -3.8625715225       -0.6358574295       -0.9084554635
 C         -3.2010211823       -0.7418553523        0.4587611743
 O         -1.7832126211       -0.8301347136        0.3477747468
 C         -1.1134894772        0.3255139757        0.2118333856
 O         -1.6484885327        1.4111914739        0.2023385999
 C          0.3238889709        0.0964076970        0.0917416224
 C          1.0034110296       -1.1611912706        0.0946943952
 C          2.3240311533       -0.8815654044       -0.0422020911
 C          3.5247627094       -1.7546604196       -0.1076057106
 O          2.5048752035        0.4634550672       -0.1295480171
 C          1.3016789592        1.0545415694       -0.0492756878
 C          1.2188311481        2.5326926557       -0.1189152085
 H         -4.9426803259       -0.6346373417       -0.7925738941
 H         -3.5713567059       -1.4768353168       -1.5334083829
 H         -3.5586995686        0.2879397119       -1.3946041157
 H         -3.5036664806       -1.6568650158        0.9727864991
 H         -3.4561943125        0.1314075554        1.0687607171
 H          0.5456619718       -2.1232462015        0.1877674456
 H          3.2249860789       -2.7942391297       -0.0203311507
 H          4.2153732487       -1.5117643615        0.6989513685
 H          4.0484262213       -1.6107366827       -1.0518746748
 H          1.6330716213        2.8905032264       -1.0607188472
 H          1.7914261314        2.9818467512        0.6916301658
 H          0.1781594211        2.8307957943       -0.0400692944
  24
        -37.61119008
 C         -3.8489139122        0.1971427080       -0.9719416463
 C         -3.1817227497        0.6388051574        0.3233631452
 O         -1.7642896371        0.7085473510        0.1848579250
 C         -1.0875450347       -0.4474555541        0.3313851635
 O         -1.6164854629       -1.5012195898        0.5917977069
 C          0.3501547336       -0.2646162194        0.1488489994
 C          1.3269487585       -1.3017491837        0.2610273331
 C          2.5300185112       -0.7231287450        0.0183236027
 C          3.9109289349       -1.2708629445       -0.0116689622
 O          2.3588719935        0.6017899797       -0.2368079770
 C          1.0480143252        0.8808089344       -0.1589153157
 C          0.6117725225        2.2779166328       -0.4013617703
 H         -4.9282568136        0.2111194860       -0.8502709669
 H         -3.5352059677       -0.8133022015       -1.2218842952
 H         -3.5729525773        0.8647115735       -1.7849467700
 H         -3.4264335006       -0.0613109951        1.1292763278
 H         -3.4903330788        1.6492323971        0.6008889508
 H          1.1231884019       -2.3259030144        0.4927154274
 H          3.8859542848       -2.3319634094        0.2150469910
 H          4.5377152487       -0.7626130800        0.7199846414
 H          4.3569572353       -1.1250040577       -0.9947275812
 H          1.4778095944        2.8891208798       -0.6418516581
 H          0.1168401995        2.6782533223        0.4815259986
 H         -0.1014817842        2.3143013426       -1.2223468354
  24
        -37.61052496
 C         -3.9387333432        1.4191639157       -0.3559747062
 C         -3.2266533147        0.1284389603        0.0030140179
 O         -1.8205533417        0.3500790860       -0.0887126981
 C         -1.0383163816       -0.6960836114        0.2339747637
 O         -1.4790518822       -1.7655624569        0.5816288634
 C          0.3821629304       -0.3786844177        0.1123126966
 C          1.4516234816       -1.2845658201        0.3910721731
 C          2.6015565582       -0.6040467188        0.1548611410
 C          4.0309421914       -0.9955396699        0.2619017886
 O          2.3111292947        0.6610514877       -0.2514003101
 C          0.9760721961        0.7997728023       -0.2778050411
 C          0.4132330978        2.1078368937       -0.6942175139
 H         -5.0130908693        1.2737216038       -0.2915487878
 H         -3.6806711777        1.7207021581       -1.3675973928
 H         -3.6455181962        2.2112161536        0.3278242069
 H         -3.5037077886       -0.6831671735       -0.6798550829
 H         -3.4702072471       -0.1920638988        1.0226029769
 H          1.3401048276       -2.2960676026        0.7204291896
 H          4.1015674771       -2.0253527045        0.5973156517
 H          4.5497817401       -0.3513206909        0.9706686891
 H          4.5252359340       -0.8985804255       -0.7039603929
 H          1.2250572841        2.7886296037       -0.9366730026
 H         -0.1917634007        2.5310030455        0.1052831085
 H         -0.2310320307        1.9828835132       -1.5621884796
