  24
        -37.61291687
 C         -3.8625715225       -0.6358574295       -0.9084554635
 C         -3.2010211823       -0.7418553523        0.4587611743
 O         -1.7832126211       -0.8301347136        0.3477747468
 C         -1.1134894772        0.3255139757        0.2118333856
 O         -1.6484885327        1.4111914739        0.2023385999
 C          0.3238889709        0.0964076970        0.0917416224
 C          1.0034110296       -1.1611912706        0.0946943952
 C          2.3240311533       -0.8815654044       -0.0422020911
 C          3.5247627094       -1.7546604196       -0.1076057106
 O          2.5048752035        0.4634550672       -0.1295480171
 C          1.3016789592        1.0545415694       -0.0492756878
 C          1.2188311481        2.5326926557       -0.1189152085
 H         -4.9426803259       -0.6346373417       -0.7925738941
 H         -3.5713567059       -1.4768353168       -1.5334083829
 H         -3.5586995686        0.2879397119       -1.3946041157
 H         -3.5036664806       -1.6568650158        0.9727864991
 H         -3.4561943125        0.1314075554        1.0687607171
 H          0.5456619718       -2.1232462015        0.1877674456
 H          3.2249860789       -2.7942391297       -0.0203311507
 H          4.2153732487       -1.5117643615        0.6989513685
 H          4.0484262213       -1.6107366827       -1.0518746748
 H          1.6330716213        2.8905032264       -1.0607188472
 H          1.7914261314        2.9818467512        0.6916301658
 H          0.1781594211        2.8307957943       -0.0400692944
