  29
        -51.51824726
 C         -1.6139037756        3.8958926658       -0.0258595840
 C         -0.4722246520        3.2191198140       -0.0413930140
 C         -0.3165522706        1.7682793266        0.0063888391
 C         -1.4035845632        0.8959663994       -0.0286306859
 C         -1.2275691996       -0.4856273001        0.0208689310
 C         -2.3309662422       -1.4349717711       -0.0119242751
 C         -3.6311010736       -1.1878632822       -0.0647119510
 F         -4.2391788842       -0.0077746213       -0.1009263592
 F         -4.5539692632       -2.1459494138       -0.0886410551
 C          0.0674565697       -0.9951084227        0.1049059224
 C          1.1609489618       -0.1391971955        0.1391593101
 C          2.5158051947       -0.7434539872        0.2289479573
 O          2.7196842399       -1.9328077737        0.2614718951
 O          3.4831969163        0.1796915776        0.2826235946
 C          4.8262583973       -0.2976362620        0.3589935071
 C          5.3703165570       -0.6545844835       -1.0169027497
 C          0.9698302420        1.2357681134        0.0881237312
 H         -1.6233523461        4.9716464955       -0.0616797554
 H         -2.5780115669        3.4201342049        0.0262631763
 H          0.4616559532        3.7657626876       -0.0850773417
 H         -2.3965417538        1.3047857032       -0.1008879425
 H         -2.0623789681       -2.4810990428        0.0128998595
 H          0.2446520576       -2.0592574958        0.1446660466
 H          4.8539873397       -1.1740965363        1.0149006497
 H          5.3925002790        0.5217030249        0.8070133853
 H          4.8015729852       -1.4803446749       -1.4372198472
 H          6.4113287525       -0.9522023592       -0.9304424485
 H          5.2983949014        0.2008558907       -1.6844851191
 H          1.8269467957        1.8907480551        0.1146141763
