  29
        -51.51824715
 C         -1.6096501979        3.8961816631       -0.0258117815
 C         -0.4686974746        3.2181021000       -0.0392881014
 C         -0.3146996775        1.7671214144        0.0096596065
 C         -1.4027609708        0.8960489093       -0.0240336282
 C         -1.2283366841       -0.4857191240        0.0261827234
 C         -2.3329573187       -1.4336863202       -0.0051626130
 C         -3.6324640197       -1.1851017085       -0.0658857180
 F         -4.2386851964       -0.0044977883       -0.1134548529
 F         -4.5565681966       -2.1420455529       -0.0881623449
 C          0.0661664073       -0.9966893465        0.1094135816
 C          1.1606871543       -0.1420278210        0.1420299101
 C          2.5151429694       -0.7476510328        0.2284819550
 O          2.7183749072       -1.9372849978        0.2534538417
 O          3.4829896572        0.1747071898        0.2877587085
 C          4.8261123081       -0.3033788408        0.3578277987
 C          5.3697322803       -0.6406530871       -1.0232296725
 C          0.9711097641        1.2331424344        0.0907034075
 H         -1.6178651173        4.9719024251       -0.0628230820
 H         -2.5743653873        3.4215457803        0.0253507598
 H          0.4658606895        3.7636327075       -0.0824461101
 H         -2.3952882699        1.3059959937       -0.0956694392
 H         -2.0660191550       -2.4800312666        0.0271782893
 H          0.2421536192       -2.0610417715        0.1491977898
 H          4.8538757425       -1.1889969357        1.0013089802
 H          5.3924037375        0.5096081950        0.8172477754
 H          4.7997667906       -1.4592421610       -1.4557807445
 H          6.4103099454       -0.9410231505       -0.9413809986
 H          5.2989988753        0.2246674227       -1.6780947598
 H          1.8290237103        1.8871180219        0.1162198186
