  23
        -42.29588446
 C         -2.7543866443        3.4186027487        0.0379597435
 C         -1.5677228172        2.8269856253       -0.0228033160
 C         -1.3049867429        1.3918239189       -0.0144971858
 C         -2.3232382377        0.4368523020       -0.0076194255
 C         -2.0456345690       -0.9193694138        0.0007950779
 C         -3.1248809013       -1.9565711015        0.0098188733
 C         -0.7118235493       -1.3067655378        0.0025241216
 F         -0.4327015924       -2.6309611295        0.0106503423
 C          0.3454933310       -0.3945260942       -0.0057996745
 C          1.7051539393       -0.9101144685       -0.0052426745
 C          2.8388384622       -0.2259683199       -0.0016921959
 F          2.9989781057        1.0923353700        0.0018442707
 F          4.0367474262       -0.8042637866       -0.0010867363
 C          0.0188000806        0.9599969431       -0.0155680656
 H         -2.8428664727        4.4911461116        0.0271901122
 H         -3.6798139698        2.8727371292        0.1027354143
 H         -0.6786248907        3.4422649094       -0.0801018833
 H         -3.3548031281        0.7512075856       -0.0122425547
 H         -4.1063563904       -1.4937840721       -0.0368202490
 H         -3.0596546425       -2.5582408346        0.9156612899
 H         -3.0078868360       -2.6297110346       -0.8382911930
 H          1.8118671291       -1.9853596933       -0.0066710669
 H          0.8051617564        1.6967655097       -0.0228353758
