  19
        -35.16434622
 C          0.9931261582        2.7144725433       -0.8033201163
 C          0.4422239387        1.7604563825       -0.0638495697
 C          0.9821426425        0.4070562197        0.0121096777
 N          2.2504036203        0.2537630376       -0.3601018439
 C          2.8363106648       -0.9161718195       -0.2304482634
 C          2.2079804660       -2.0235149879        0.3247462803
 C          0.8822961551       -1.8933454343        0.6929926207
 C          0.2281454795       -0.6760223416        0.5092066604
 C         -1.1935426029       -0.5947393174        0.8387608008
 C         -2.1255366609       -0.0232364496        0.0945452124
 F         -1.9578726509        0.5742211335       -1.0775597789
 F         -3.4164482656        0.0029752714        0.4197317011
 H          0.5937390436        3.7132292756       -0.8327315030
 H          1.8608837067        2.5059590573       -1.4044778962
 H         -0.4346191410        1.9611705415        0.5363985202
 H          3.8626051432       -0.9644904222       -0.5706320717
 H          2.7348159745       -2.9554544691        0.4546384850
 H          0.3397416319       -2.7335655862        1.1031892684
 H         -1.5286212541       -1.0962034548        1.7350237095
