  46
        -76.74180881
 F         -3.1584260761       -6.2023202337        0.1275107873
 C         -3.1668291079       -4.8673245108        0.1189198340
 F         -4.4284814824       -4.4495683645        0.1685547858
 C         -2.0606354279       -4.1397347267        0.0696776942
 C         -1.9163595664       -2.6943351968        0.0557396270
 C         -0.6245898352       -2.1718827768        0.0286693588
 C         -0.4446766402       -0.8001308907        0.0209390613
 C          0.7184822345        0.0428981246       -0.0220137058
 C          2.0800969265       -0.2156265446       -0.0441244104
 C          2.9714568561        0.8489985923       -0.0705837883
 C          4.4214341383        0.6047052081       -0.1049996822
 C          4.9927660024       -0.3926549124        0.6819777983
 C          6.3555457188       -0.6218981094        0.6495633673
 C          7.1705642112        0.1378130157       -0.1727618308
 C          6.6134153655        1.1303825883       -0.9613978202
 C          5.2513862078        1.3639516196       -0.9266630934
 C          2.4824208464        2.1625202856       -0.0539026501
 C          1.1318122561        2.4425619016       -0.0244266386
 C          0.2458069421        1.3747825896       -0.0273982108
 N         -1.1349171007        1.3714299818        0.0166972864
 C         -1.9576835762        2.5083073413        0.0241674651
 C         -1.7793471033        3.5048658934       -0.9305125848
 C         -2.5889708168        4.6255238753       -0.9164265137
 C         -3.5841616346        4.7565290756        0.0378439990
 C         -3.7655592047        3.7627054847        0.9852715871
 C         -2.9543440480        2.6430810456        0.9858387148
 C         -1.5650464580        0.0644248105        0.0480769772
 C         -2.8553575384       -0.4495439315        0.0488401691
 C         -3.0153454862       -1.8183322183        0.0567164052
 H         -1.1443460241       -4.7120966131        0.0388076515
 H          0.2300506120       -2.8314536020        0.0097140451
 H          2.4412681495       -1.2327784286       -0.0590568683
 H          4.3644597033       -0.9769709386        1.3386922757
 H          6.7849733709       -1.3950065634        1.2703652255
 H          8.2350714949       -0.0427314092       -0.1988134314
 H          7.2435899683        1.7236430022       -1.6082789072
 H          4.8207728898        2.1284920322       -1.5572090093
 H          3.1885041186        2.9795456656       -0.0383890386
 H          0.7797936922        3.4624280666        0.0133449934
 H         -1.0169350260        3.3880134531       -1.6861500795
 H         -2.4471271563        5.3960925185       -1.6595478853
 H         -4.2169876093        5.6309574534        0.0430291652
 H         -4.5377788867        3.8628210621        1.7333857143
 H         -3.0780012423        1.8762989872        1.7359445150
 H         -3.7155596018        0.2020517256        0.0319994121
 H         -4.0152352295       -2.2187548192        0.0582333012
