23
 energy: -44.951180279187 gnorm: 0.000054565170 xtb: 6.4.1 (23d549d)
C         3.54723606440000    0.96502911160000   -0.44313634860000
C         2.49155057070000    1.55870336510000    0.10688787370000
C         1.14332387650000    1.03401401760000    0.11806023510000
S        -0.16943608740000    2.16056635390000    0.08924820700000
C        -1.34227321630000    0.88620093830000   -0.01039083300000
C        -2.74514763890000    1.19520644460000   -0.08193745170000
C        -3.23945959940000    2.42973484270000   -0.04142068150000
C        -0.73526952840000   -0.35703757740000   -0.04295973370000
C        -1.56915799480000   -1.60407425880000   -0.10652430630000
O        -2.66410862950000   -1.64588213090000    0.39443559940000
O        -1.08776087680000   -2.64058717190000   -0.77411516370000
C         0.68678171650000   -0.26954262320000    0.04967792760000
C         1.59844858090000   -1.43549726700000    0.12790073470000
O         1.52438960010000   -2.38167842320000   -0.62078905730000
O         2.52206802110000   -1.41062258220000    1.09125811670000
H         4.51477316590000    1.43447483580000   -0.43239088130000
H         3.48571148350000    0.00749378230000   -0.93248781750000
H         2.58917056560000    2.54950670580000    0.53178711090000
H        -3.39785453060000    0.33779972630000   -0.15516557330000
H        -2.60474976110000    3.29755432080000    0.05112482990000
H        -4.29778366570000    2.60992450910000   -0.09718563810000
H        -0.13046872450000   -2.58923829960000   -0.99955989820000
H         2.50842791740000   -0.59677013310000    1.61300110070000
