  51
        -58.13186605
 C         -7.7701441734        1.9092847467        0.6026935077
 C         -6.9122362672        0.6571932121        0.4639916065
 C         -5.9967658819        0.6857105841       -0.7608294863
 C         -4.9595505424        1.8106548364       -0.7666988933
 C         -3.9968618184        1.8111652890        0.4223067531
 C         -3.1781976844        0.5300683200        0.5920867824
 C         -2.3078525041        0.1561075131       -0.6091599444
 C         -1.2899125577        1.2191935316       -1.0275610406
 C         -0.2962404464        1.6278102924        0.0607287388
 C          0.5878083311        0.4772671382        0.5348099978
 C          1.6635903549        0.9534058232        1.5067625562
 C          2.5706994033       -0.1915441253        1.9733926415
 C          3.3551912872       -0.7709318176        0.8367929241
 C          4.4256443025       -0.0711034415        0.2147148038
 C          5.0024141076       -0.7407740199       -0.8128000561
 C          6.1344387428       -0.3220381001       -1.6818606080
 S          4.2322620959       -2.2803524819       -1.0469146727
 C          3.1286369366       -1.9855441384        0.2647273984
 C          2.1126590418       -3.0171053585        0.6190426739
 H         -8.4717075955        1.7968984772        1.4265877416
 H         -8.3378325322        2.0843773476       -0.3089589076
 H         -7.1563375681        2.7844594956        0.7994065882
 H         -7.5693987589       -0.2119923992        0.3758072206
 H         -6.3169404682        0.5225064743        1.3685782676
 H         -6.6164937156        0.7924844098       -1.6554207635
 H         -5.4851079577       -0.2759568733       -0.8358076871
 H         -5.4758396531        2.7727448367       -0.7877911117
 H         -4.3856729180        1.7382286106       -1.6929750096
 H         -4.5619847351        1.9786909101        1.3418026796
 H         -3.3173319893        2.6586281989        0.3089327257
 H         -3.8539488084       -0.3035163550        0.7954672959
 H         -2.5432024863        0.6457930623        1.4731804949
 H         -2.9505640330       -0.0542429322       -1.4665541897
 H         -1.7806320854       -0.7710827846       -0.3737758440
 H         -1.8208597645        2.1110753825       -1.3663350070
 H         -0.7290637937        0.8324180661       -1.8828262366
 H         -0.8308838587        2.0506852185        0.9132739849
 H          0.3440572313        2.4167304459       -0.3434378934
 H          1.0667922544        0.0119557260       -0.3297655977
 H         -0.0243924373       -0.2790767445        1.0295468625
 H          1.1881100345        1.4082028040        2.3793602726
 H          2.2731394524        1.7194360612        1.0223113691
 H          1.9630005530       -0.9679635780        2.4404402364
 H          3.2671722660        0.1929092251        2.7234529995
 H          4.7513544479        0.9030863222        0.5364504269
 H          6.4855917612        0.6629819879       -1.3830035349
 H          5.8252806838       -0.2831207668       -2.7263884582
 H          6.9612187468       -1.0281575483       -1.6055410098
 H          2.2498176409       -3.9034793111        0.0048334399
 H          1.1032828899       -2.6381554918        0.4579454347
 H          2.2043063535       -3.3043176789        1.6668243990
