  26
        -46.99745062
 C         -2.1717923715       -3.1294387489       -0.0028452487
 C         -2.2112688030       -1.8446615534       -0.3346558638
 C         -1.1036723230       -0.9153011904       -0.1461686628
 C          0.2159665860       -1.3631602120       -0.1589371143
 C          1.2927442831       -0.5058467664        0.0099181295
 C          2.6513298864       -1.1278798945       -0.0758281008
 O          2.8708639728       -2.2497890105        0.2851433862
 O          3.6227233161       -0.3800834546       -0.6293505217
 C          1.0745828015        0.8649540439        0.2278542846
 C          2.1662506427        1.7967381546        0.5288245271
 C          2.2236477645        3.0504926343        0.0982476917
 C         -0.2402324325        1.3208936373        0.2125233811
 C         -1.3180741378        0.4649102599        0.0177402322
 C         -2.7015805759        1.0302885813        0.0725797425
 O         -3.6282098309        0.4947045199        0.6103034686
 O         -2.8553095593        2.2272816541       -0.5287470061
 H         -3.0219341466       -3.7702755629       -0.1580527566
 H         -1.3099875775       -3.5830684191        0.4572214894
 H         -3.1212468856       -1.4253786180       -0.7386723093
 H          0.4284998765       -2.4084907750       -0.3208428172
 H          3.3196254956        0.5048662443       -0.8791428768
 H          2.9527629632        1.4104859584        1.1658267292
 H          1.4736864030        3.4701295233       -0.5523037785
 H          3.0353799366        3.7022523934        0.3697759751
 H         -0.4165545635        2.3670032514        0.4266367142
 H         -2.0450167945        2.5366298891       -0.9548144484
