  23
        -28.81603583
 C          2.7674343234       -1.2319594618        0.0869321962
 N          2.0514604559       -0.0011637045       -0.1490944007
 C          0.6717076383        0.0006124866       -0.0622362286
 C         -0.0590671635        1.1943794080       -0.0345881653
 C         -1.4395976336        1.1876345566        0.0019999616
 C         -2.1611369726        0.0032900038        0.0196773427
 C         -3.6604918495       -0.0029018472        0.0435135514
 C         -1.4408482913       -1.1834211833       -0.0007956301
 C         -0.0613850798       -1.1927384509       -0.0376912516
 C          2.7705763657        1.2286486724        0.0817508055
 H          2.5655477784       -1.6514995734        1.0809385048
 H          3.8364631531       -1.0480744573        0.0028765278
 H          2.4982654745       -1.9745415868       -0.6666480133
 H          0.4442863334        2.1472267028       -0.0401088146
 H         -1.9656904894        2.1323458336        0.0226614721
 H         -4.0466864865        0.9573756524        0.3776112497
 H         -4.0331002751       -0.7813925352        0.7069693319
 H         -4.0539915991       -0.1985901598       -0.9550607917
 H         -1.9704799936       -2.1261678589        0.0176796140
 H          0.4408813983       -2.1461520136       -0.0462466904
 H          3.8386361609        1.0437888609       -0.0122701498
 H          2.5780377141        1.6477677331        1.0778596699
 H          2.4953272907        1.9718497707       -0.6688659676
