  53
        -62.36690235
 C          3.9008988146       -0.1885177232        2.6895990181
 C          2.6111098425        0.0123518952        2.4309630574
 C          1.9185534957       -0.4819325804        1.2725296045
 S          2.7087485143       -1.5603451444        0.1628904269
 C          1.2785901031       -1.6727074789       -0.8184257037
 C          1.2618233948       -2.4991290273       -1.9939228239
 C          2.2795959499       -3.2468324021       -2.4135543547
 C          0.2582296648       -0.8984738789       -0.3081363846
 C         -1.1101716561       -0.8431977856       -0.9154928792
 C         -1.9821350938       -1.9773322990       -0.3624341078
 C         -3.4143493146       -1.9501509201       -0.8969064740
 C         -4.2552117938       -0.7631770350       -0.4227117430
 C         -4.5242925537       -0.7678867189        1.0807843311
 C         -5.4541592667        0.3689483751        1.4875403363
 C          0.6198526039       -0.2256539110        0.8863398464
 C         -0.2744527055        0.7144171476        1.6390311400
 C          0.1091165584        2.1812960614        1.3957944781
 C         -0.0389911472        2.5890556375       -0.0674781631
 C          0.4498094072        4.0153215302       -0.3069367199
 C          0.2712595113        4.4790929991       -1.7529970491
 C          1.1714350322        3.7377056940       -2.7347812706
 H          4.3660251190        0.1990657574        3.5786656932
 H          4.5294099042       -0.7464637763        2.0154277415
 H          2.0079723262        0.5821832463        3.1253394354
 H          0.3359269563       -2.4948538219       -2.5534177317
 H          3.2130974572       -3.2790798904       -1.8766063710
 H          2.2097069477       -3.8484555571       -3.3024137848
 H         -1.0465097556       -0.9317775788       -2.0015366506
 H         -1.5680845417        0.1192524386       -0.6932950669
 H         -1.9901095570       -1.9266232502        0.7275276456
 H         -1.5232836538       -2.9307882057       -0.6360192907
 H         -3.9146671124       -2.8728088645       -0.5921607874
 H         -3.3803316080       -1.9406661730       -1.9895499833
 H         -5.2142677089       -0.7951481726       -0.9462971437
 H         -3.7694648957        0.1741771013       -0.7009941718
 H         -3.5857077188       -0.6701619378        1.6292808466
 H         -4.9737317888       -1.7231343423        1.3620198779
 H         -5.0177861282        1.3313997889        1.2276882900
 H         -5.6331419639        0.3525657839        2.5602195668
 H         -6.4117772841        0.2807435058        0.9787578617
 H         -0.2058923246        0.5028996968        2.7091374053
 H         -1.3119820241        0.5615020096        1.3423226771
 H          1.1464391650        2.3354966866        1.7006505574
 H         -0.5214506044        2.8209329195        2.0185884607
 H         -1.0887280082        2.5170293353       -0.3640680763
 H          0.5350016548        1.8968885142       -0.6851465704
 H          1.5064117433        4.0829399014       -0.0369329174
 H         -0.1023763501        4.6921395267        0.3506965300
 H          0.4975683540        5.5468436640       -1.8060830198
 H         -0.7727943612        4.3489413686       -2.0477504011
 H          2.2134918209        3.8252258937       -2.4347366941
 H          1.0662198739        4.1562888978       -3.7332795451
 H          0.9155322568        2.6824178540       -2.7822637650
