53
 energy: -62.366902346207 gnorm: 0.000070445266 xtb: 6.4.1 (23d549d)
C         3.90089881460000   -0.18851772320000    2.68959901810000
C         2.61110984250000    0.01235189520000    2.43096305740000
C         1.91855349570000   -0.48193258040000    1.27252960450000
S         2.70874851430000   -1.56034514440000    0.16289042690000
C         1.27859010310000   -1.67270747890000   -0.81842570370000
C         1.26182339480000   -2.49912902730000   -1.99392282390000
C         2.27959594990000   -3.24683240210000   -2.41355435470000
C         0.25822966480000   -0.89847387890000   -0.30813638460000
C        -1.11017165610000   -0.84319778560000   -0.91549287920000
C        -1.98213509380000   -1.97733229900000   -0.36243410780000
C        -3.41434931460000   -1.95015092010000   -0.89690647400000
C        -4.25521179380000   -0.76317703500000   -0.42271174300000
C        -4.52429255370000   -0.76788671890000    1.08078433110000
C        -5.45415926670000    0.36894837510000    1.48754033630000
C         0.61985260390000   -0.22565391100000    0.88633984640000
C        -0.27445270550000    0.71441714760000    1.63903114000000
C         0.10911655840000    2.18129606140000    1.39579447810000
C        -0.03899114720000    2.58905563750000   -0.06747816310000
C         0.44980940720000    4.01532153020000   -0.30693671990000
C         0.27125951130000    4.47909299910000   -1.75299704910000
C         1.17143503220000    3.73770569400000   -2.73478127060000
H         4.36602511900000    0.19906575740000    3.57866569320000
H         4.52940990420000   -0.74646377630000    2.01542774150000
H         2.00797232620000    0.58218324630000    3.12533943540000
H         0.33592695630000   -2.49485382190000   -2.55341773170000
H         3.21309745720000   -3.27907989040000   -1.87660637100000
H         2.20970694770000   -3.84845555710000   -3.30241378480000
H        -1.04650975560000   -0.93177757880000   -2.00153665060000
H        -1.56808454170000    0.11925243860000   -0.69329506690000
H        -1.99010955700000   -1.92662325020000    0.72752764560000
H        -1.52328365380000   -2.93078820570000   -0.63601929070000
H        -3.91466711240000   -2.87280886450000   -0.59216078740000
H        -3.38033160800000   -1.94066617300000   -1.98954998330000
H        -5.21426770890000   -0.79514817260000   -0.94629714370000
H        -3.76946489570000    0.17417710130000   -0.70099417180000
H        -3.58570771880000   -0.67016193780000    1.62928084660000
H        -4.97373178880000   -1.72313434230000    1.36201987790000
H        -5.01778612820000    1.33139978890000    1.22768829000000
H        -5.63314196390000    0.35256578390000    2.56021956680000
H        -6.41177728410000    0.28074350580000    0.97875786170000
H        -0.20589232460000    0.50289969680000    2.70913740530000
H        -1.31198202410000    0.56150200960000    1.34232267710000
H         1.14643916500000    2.33549668660000    1.70065055740000
H        -0.52145060440000    2.82093291950000    2.01858846070000
H        -1.08872800820000    2.51702933530000   -0.36406807630000
H         0.53500165480000    1.89688851420000   -0.68514657040000
H         1.50641174330000    4.08293990140000   -0.03693291740000
H        -0.10237635010000    4.69213952670000    0.35069653000000
H         0.49756835400000    5.54684366400000   -1.80608301980000
H        -0.77279436120000    4.34894136860000   -2.04775040110000
H         2.21349182090000    3.82522589370000   -2.43473669410000
H         1.06621987390000    4.15628889780000   -3.73327954510000
H         0.91553225680000    2.68241785400000   -2.78226376500000
