  24
        -37.21443216
 C          5.1366533211        1.1097027761       -0.0064040820
 C          4.6098962683       -0.1122862895        0.0013697851
 C          3.2049388042       -0.4054622770        0.0021850122
 C          2.6173225040       -1.6471640584        0.0088274718
 C          1.2190065244       -1.6083296128        0.0081344041
 C          0.7123960949       -0.3303298869        0.0009647237
 C         -0.6511765014        0.0777789577       -0.0012330679
 C         -1.1584495676        1.3565002592       -0.0091538369
 C         -2.5558109250        1.4009526825       -0.0086005749
 C         -3.1461125365        0.1600253686       -0.0003715834
 C         -4.5359356002       -0.2056677139        0.0027718309
 C         -5.5562002508        0.6498297483       -0.0017770426
 S         -1.9370910188       -1.0925313891        0.0068588078
 S          1.9951892542        0.8462297829       -0.0052531833
 H          6.2003415744        1.2675810264       -0.0065076433
 H          4.5131889254        1.9886436344       -0.0128707090
 H          5.2508642599       -0.9851260094        0.0077374270
 H          3.1871083582       -2.5597745405        0.0140982986
 H          0.5887185200       -2.4802840489        0.0127780583
 H         -0.5258184048        2.2268232593       -0.0150831777
 H         -3.1161426830        2.3181027294       -0.0141406120
 H         -4.7278520045       -1.2708990480        0.0094957019
 H         -5.4108545336        1.7160059398       -0.0083710091
 H         -6.5745246068        0.3039087008        0.0009610505
