  38
        -52.54670817
 C          5.0907114836       -2.3760495603       -0.5206074898
 C          4.6647747089       -1.1217849314       -0.4267509115
 C          3.3142460633       -0.6777976401       -0.1089482299
 C          2.2681566128       -1.5530460437        0.1771638100
 C          1.0053447946       -1.0827370581        0.4800711110
 C          0.7427878237        0.2822032266        0.5078490319
 O         -0.4666595732        0.8363448691        0.8132661920
 C         -1.5894978378        0.0157339506        1.0271406111
 C         -2.1627845353       -0.5271034573       -0.3020130441
 C         -2.8282982199        0.5856201483       -1.1219071469
 C         -4.1973061164        0.9570335195       -0.5555483577
 C         -5.0344210692       -0.3104165888       -0.4064164947
 C         -4.2730027864       -1.3153178090        0.4554187346
 O         -3.0113148561       -1.6376947763       -0.0935352941
 C          1.7811113711        1.1917779165        0.2143650917
 C          1.5035709808        2.6239253355        0.2501927563
 C          2.2274329311        3.5734092920       -0.3290599865
 C          3.0401268562        0.6882795108       -0.0806062665
 H          6.1149777970       -2.6021031166       -0.7628391857
 H          4.4472990132       -3.2246164997       -0.3638763094
 H          5.3698257499       -0.3175017933       -0.6008080190
 H          2.4344347169       -2.6186562586        0.1690374916
 H          0.2272343800       -1.7985586181        0.6946686225
 H         -2.3115021499        0.6684767198        1.5237146595
 H         -1.3612139482       -0.8217583242        1.6975930823
 H         -1.3240974063       -0.9358046043       -0.8792573909
 H         -2.9537029446        0.2309793570       -2.1469985320
 H         -2.1631738603        1.4501913892       -1.1347916317
 H         -4.6925621962        1.6645975149       -1.2227106839
 H         -4.0880729581        1.4399418507        0.4179326552
 H         -5.2112960295       -0.7489231985       -1.3903500379
 H         -5.9977932518       -0.0909941655        0.0552115288
 H         -4.8058787957       -2.2674879881        0.5093573110
 H         -4.1590563274       -0.9209622519        1.4756881922
 H          0.6057207451        2.8920375251        0.7896962311
 H          3.1104094660        3.3609197823       -0.9078110155
 H          1.9526314672        4.6115537526       -0.2530177359
 H          3.8414201340        1.3838320811       -0.2810602576
