  30
        -34.88810171
 C          3.5648919577       -0.8283810304        0.6425695522
 C          2.7951056537       -0.4767383883       -0.6322691682
 C          1.3503322412       -0.1945341757       -0.3217603803
 C          0.4530534364       -1.2520679562       -0.2842216219
 C         -0.8881296862       -1.0881717278        0.0283743190
 C         -1.7968241826       -2.2824810272        0.0559692247
 C         -1.3502546738        0.1949788015        0.3219155052
 C         -2.7950896688        0.4770514582        0.6322301153
 C         -3.5651675272        0.8265725154       -0.6430173677
 C         -0.4529687800        1.2524975723        0.2844422030
 C          0.8882158388        1.0886038024       -0.0282098015
 C          1.7968878574        2.2829345241       -0.0559088124
 H          4.6081982526       -1.0356150648        0.4139485172
 H          3.1307243820       -1.7075056420        1.1134994460
 H          3.5230141704       -0.0083323622        1.3557032540
 H          2.8571281791       -1.3192321460       -1.3250420305
 H          3.2605397512        0.3852658562       -1.1111028755
 H          0.8171359912       -2.2452620124       -0.5121762189
 H         -1.2609704895       -3.1748031439       -0.2586920227
 H         -2.6494447948       -2.1423949946       -0.6060543062
 H         -2.1779506414       -2.4517474886        1.0632664990
 H         -2.8573950724        1.3205088020        1.3237974483
 H         -3.2600896872       -0.3844823103        1.1123537068
 H         -3.1315597860        1.7053583585       -1.1150991433
 H         -4.6085916699        1.0334398851       -0.4146065563
 H         -3.5228247594        0.0056473274       -1.3551106468
 H         -0.8170345272        2.2456906819        0.5124309980
 H          1.2610581134        3.1752420352        0.2588332473
 H          2.1778152589        2.4522146629       -1.0632831976
 H          2.6496220920        2.1428571172        0.6059781312
  30
        -34.88806968
 C          3.3179874161       -0.6667078319       -1.2656407192
 C          2.8568232909       -0.5470951692        0.1885257657
 C          1.3866796648       -0.2351225192        0.2572497640
 C          0.4768268359       -1.2824550905        0.2498012149
 C         -0.8957526773       -1.0848116880        0.2700129448
 C         -1.8178173138       -2.2691462823        0.2698726864
 C         -1.3785849136        0.2235374987        0.3056583206
 C         -2.8498779939        0.5373502118        0.2916910742
 C         -3.3527683391        0.7161195319       -1.1424145614
 C         -0.4686736774        1.2708599682        0.3147119812
 C          0.9037794431        1.0733577906        0.2880933425
 C          1.8262567582        2.2571727024        0.3100868874
 H          4.3809470575       -0.8941014070       -1.3119450187
 H          3.1388150799        0.2613427749       -1.8036124883
 H          2.7702945583       -1.4598721455       -1.7696489591
 H          3.4374640757        0.2271820689        0.6909539304
 H          3.0489381570       -1.4941175680        0.6982436735
 H          0.8568635231       -2.2953896477        0.2278923201
 H         -1.2503010654       -3.1924433982        0.1813654289
 H         -2.5224543380       -2.2181033632       -0.5582318851
 H         -2.3908679940       -2.3094959726        1.1964336698
 H         -3.0265460603        1.4626554790        0.8449919783
 H         -3.4164040387       -0.2570414979        0.7785229737
 H         -2.8187872772        1.5289939277       -1.6294782866
 H         -4.4162481320        0.9455809744       -1.1484942390
 H         -3.1907542232       -0.1893589899       -1.7226206359
 H         -0.8486163046        2.2836323767        0.3444006410
 H          1.2572068988        3.1829937028        0.2733293651
 H          2.5085687230        2.2391816919       -0.5377622665
 H          2.4237450460        2.2610744356        1.2219485677
  30
        -34.88674724
 C          3.5107948502       -0.6422030860        0.9298197542
 C          2.8598098295       -0.4715588929       -0.4444151477
 C          1.3784614581       -0.2471538413       -0.3085850849
 C          0.5344337560       -1.3471767368       -0.2478337716
 C         -0.8359204127       -1.2282377388       -0.0856356533
 C         -1.6908302962       -2.4586370825       -0.0289568004
 C         -1.3963400017        0.0489974247        0.0206865682
 C         -2.8872016190        0.1846987194        0.1952505599
 C         -3.4170124700        1.6090630213        0.3026592169
 C         -0.5519620563        1.1463533992       -0.0407561501
 C          0.8225344766        1.0260397200       -0.1998474854
 C          1.6686070747        2.2645830613       -0.2655035281
 H          4.5811932903       -0.8083193018        0.8277716144
 H          3.0747832681       -1.4926643099        1.4492265199
 H          3.3546806732        0.2431034385        1.5419817039
 H          3.0347763977       -1.3759023447       -1.0319329323
 H          3.3284424201        0.3629056654       -0.9669974399
 H          0.9660410079       -2.3357870688       -0.3327603284
 H         -1.0811443196       -3.3534318633       -0.1263952263
 H         -2.4281500147       -2.4546900844       -0.8316280354
 H         -2.2317082932       -2.5108991376        0.9158331181
 H         -3.1796847478       -0.3663842172        1.0950601322
 H         -3.3785711873       -0.3088792582       -0.6496394674
 H         -2.9895714103        2.1201511055        1.1623816403
 H         -4.4982339852        1.5876184037        0.4253095260
 H         -3.1901818773        2.1781598249       -0.5960598685
 H         -0.9651055915        2.1400443043        0.0380733908
 H          1.0605633912        3.1506670285       -0.0997594281
 H          2.1414406255        2.3548037594       -1.2436793091
 H          2.4555507118        2.2427076866        0.4862311185
  30
        -34.88541153
 C          3.5288727393       -1.5169788141        0.0520825354
 C          2.9122737380       -0.1264553335       -0.0332351995
 C          1.4061862855       -0.0738856130       -0.0140062123
 C          0.6222449525       -1.2134346844        0.0813380227
 C         -0.7638499612       -1.1641232366        0.0985186793
 C         -1.5489241908       -2.4374575013        0.2053924129
 C         -1.4061451267        0.0740253622        0.0161333754
 C         -2.9122751763        0.1264502462        0.0327131170
 C         -3.5291276654        1.5158687907       -0.0674817602
 C         -0.6221874938        1.2136346912       -0.0783160696
 C          0.7639210229        1.1644110181       -0.0943423726
 C          1.5490392153        2.4380482253       -0.1972302324
 H          4.6140336147       -1.4368597449        0.0281251069
 H          3.2168835751       -2.1335111282       -0.7878957266
 H          3.2470244093       -2.0124819994        0.9783951636
 H          3.2617231764        0.3557208207       -0.9520911237
 H          3.2885334378        0.4752827830        0.8005981438
 H          1.0939633242       -2.1817382615        0.1457284127
 H         -0.8836658817       -3.2956398385        0.2597944975
 H         -2.2028152393       -2.5625095179       -0.6576374409
 H         -2.1766031357       -2.4309908932        1.0964765148
 H         -3.2631307939       -0.3468122055        0.9556708967
 H         -3.2870098244       -0.4835009091       -0.7958081663
 H         -3.2219298613        2.1401655448        0.7685131536
 H         -4.6143696010        1.4354390186       -0.0485142427
 H         -3.2425501634        2.0030774023       -0.9967324501
 H         -1.0938937040        2.1819372630       -0.1427674536
 H          0.8838070068        3.2964026094       -0.2491898745
 H          2.1772567142        2.4345539381       -1.0879451644
 H          2.2024052323        2.5602358875        0.6666144290
