  46
        -51.58826127
 C         -4.1171998045        1.2952149470       -0.7383820923
 C         -2.8918391572        0.5231369790       -0.3864732715
 C         -1.5961577600        0.9378849116       -0.4653914515
 N         -0.7528047454       -0.0647890134       -0.0537646751
 Si         0.9999017403        0.0770391671        0.1040943689
 C          1.3411662091        1.0108447949        1.7566028327
 C          0.7783422141        2.4311986170        1.7384988272
 C          0.7477736684        0.2474090300        2.9410155987
 C          1.6956150439       -1.7100081521        0.2318438757
 C          1.5360559635       -2.5089171051       -1.0602173274
 C          3.1542532398       -1.7419621607        0.6847854371
 C          1.5761758791        1.1315112304       -1.3990070878
 C          3.0965968125        1.2489801342       -1.4857730328
 C          1.0133252974        0.6406517257       -2.7325227027
 C         -1.5474071074       -1.1275643694        0.2966598221
 C         -2.8600464728       -0.8144162108        0.1060093730
 C         -4.0470392466       -1.6811918364        0.3535783813
 H         -3.8517921001        2.2910057453       -1.0852141261
 H         -4.7722925666        1.3892078646        0.1278106636
 H         -4.6766344062        0.7882463322       -1.5246804584
 H         -1.2057005775        1.8820188836       -0.7885302851
 H          2.4214252133        1.0878142529        1.9158424874
 H         -0.2967596138        2.4094160415        1.5762646706
 H          1.2360760311        3.0247718347        0.9512373726
 H          0.9678605744        2.9276919062        2.6892966329
 H         -0.3268909176        0.1351272702        2.8160693332
 H          0.9281592949        0.7843010103        3.8713637550
 H          1.1867533316       -0.7428217493        3.0306978160
 H          1.1146217072       -2.2244744345        1.0043219317
 H          2.1935903239       -2.1193890611       -1.8332882928
 H          0.5120953640       -2.4638874733       -1.4223317564
 H          1.7971994368       -3.5540512960       -0.8967419050
 H          3.7994423220       -1.2607747062       -0.0449348980
 H          3.4900573321       -2.7716213016        0.8030966498
 H          3.2796618558       -1.2334251563        1.6367992772
 H          1.1871208208        2.1434761318       -1.2431843043
 H          3.5421371478        0.2870117685       -1.7263060597
 H          3.5160576697        1.5972775834       -0.5451588706
 H          3.3803931811        1.9523192154       -2.2677013645
 H          1.4271525981       -0.3283310682       -2.9960774634
 H          1.2638842182        1.3412044063       -3.5283801945
 H         -0.0684078104        0.5475135151       -2.6865130820
 H         -1.1166701013       -2.0390982850        0.6583317316
 H         -3.7354689215       -2.6537954290        0.7266263648
 H         -4.6146814895       -1.8244699058       -0.5659479920
 H         -4.7110253101       -1.2216380155        1.0858409561
  46
        -51.58682026
 C         -4.1086473930       -1.7592156058       -0.1687136961
 C         -2.9342210092       -0.8413914361       -0.1821623627
 C         -1.6266276982       -1.1609885354        0.0334997594
 N         -0.8444617082       -0.0391914326       -0.0655557113
 Si         0.8998724834        0.1374983588        0.1617816986
 C          1.0227066012        1.1682417122        1.7865211824
 C          0.5800870903        0.3452356197        2.9964762691
 C          2.3881327505        1.8007556405        2.0434222892
 C          1.6037426398       -1.6437576023        0.3216451522
 C          1.5317989597       -2.4211151397       -0.9934079289
 C          3.0324515156       -1.6840443014        0.8607715665
 C          1.5381163981        1.1666181241       -1.3389529299
 C          3.0514040620        1.0839638034       -1.5376302137
 C          0.8328290250        0.7970171002       -2.6445392401
 C         -1.6891101269        1.0060304430       -0.3446594343
 C         -2.9749685052        0.5622044536       -0.4274307172
 C         -4.1986051107        1.3632900296       -0.7145414056
 H         -3.7925137445       -2.7767935017        0.0477446565
 H         -4.6145401494       -1.7479847193       -1.1342581253
 H         -4.8292410181       -1.4481513701        0.5877201037
 H         -1.1949210385       -2.1148104503        0.2592749827
 H          0.3041746011        1.9898540239        1.6835631818
 H          1.2744789269       -0.4690889227        3.1879271334
 H         -0.4071986468       -0.0781402017        2.8281553504
 H          0.5372591806        0.9687974208        3.8883819613
 H          3.1606769577        1.0423849978        2.1394751972
 H          2.3689193282        2.3797435633        2.9660433502
 H          2.6622289058        2.4698194678        1.2319791974
 H          0.9767144746       -2.1705114680        1.0491082905
 H          2.2255180470       -2.0072753858       -1.7209208633
 H          0.5312173817       -2.3869894983       -1.4164008979
 H          1.8010488319       -3.4647010110       -0.8325878944
 H          3.7153827832       -1.1563213413        0.2010554488
 H          3.3736588451       -2.7155553960        0.9437580518
 H          3.0914657449       -1.2318876725        1.8467670601
 H          1.2986771133        2.2156989151       -1.1285241371
 H          3.3440025549        0.0813499216       -1.8388768490
 H          3.5856245940        1.3385438530       -0.6264491532
 H          3.3677235555        1.7716656969       -2.3212171861
 H          1.0663184155       -0.2237124706       -2.9348208656
 H          1.1547090104        1.4592094285       -3.4473851424
 H         -0.2455069813        0.8818056591       -2.5420787954
 H         -1.3036761541        1.9997873142       -0.4608684606
 H         -3.9411056318        2.4090271548       -0.8641328695
 H         -4.9055530727        1.2916530406        0.1120832849
 H         -4.6966800257        0.9935944871       -1.6109288316
  46
        -51.58658093
 C         -4.2396866938        0.9485665888       -0.0965799139
 C         -2.8908891997        0.3271069177       -0.2234745161
 C         -1.7036057594        0.8171052243        0.2318749857
 N         -0.6861800814       -0.0517352832       -0.0763785037
 Si         1.0406301494        0.1681396604        0.2079402560
 C          1.2455772663        1.5401869912        1.5387755080
 C          0.6430047818        1.1568168779        2.8890763445
 C          2.7154750802        1.9114463412        1.7284616760
 C          1.7971105833       -1.4688684302        0.8957109939
 C          0.7834420134       -2.2822026643        1.7024361827
 C          2.4353739173       -2.3626371975       -0.1660611914
 C          1.7830276007        0.7806840877       -1.4651143401
 C          1.3516163172       -0.0810172814       -2.6515061768
 C          1.3679434651        2.2276315321       -1.7410040567
 C         -1.2568623630       -1.1035301396       -0.7493033332
 C         -2.6020614833       -0.9161960759       -0.8588685444
 C         -3.5960417890       -1.8157925366       -1.5100707501
 H         -4.1720263626        1.8981875538        0.4286570463
 H         -4.9135695673        0.2916764489        0.4535440800
 H         -4.6752887434        1.1229515065       -1.0805102731
 H         -1.5038752625        1.7312046023        0.7535158585
 H          0.7260343967        2.4379404335        1.1911816735
 H          1.1976675356        0.3338629042        3.3332135928
 H         -0.3962461071        0.8560331048        2.7840322715
 H          0.6873406803        1.9996452666        3.5782822353
 H          3.2813189439        1.0606734783        2.1009484164
 H          2.8139462329        2.7212224825        2.4503538868
 H          3.1655826613        2.2331084315        0.7931891770
 H          2.5995061739       -1.1791171838        1.5833623622
 H         -0.0216566124       -2.6363847997        1.0646510143
 H          0.3421895514       -1.6870587378        2.4962799954
 H          1.2678680597       -3.1483608155        2.1519397916
 H          1.6841987293       -2.7417236062       -0.8546706529
 H          2.9173784310       -3.2197200843        0.3032679805
 H          3.1869851609       -1.8204956880       -0.7340543132
 H          2.8760422589        0.7502277029       -1.4102257737
 H          0.2686263518       -0.0725831768       -2.7490037599
 H          1.6784037886       -1.1097677427       -2.5377475622
 H          1.7784089651        0.3084642450       -3.5750705294
 H          0.2835700397        2.3077890489       -1.7754065017
 H          1.7624394057        2.5578693509       -2.7010778495
 H          1.7379398028        2.9022313077       -0.9742365205
 H         -0.6538564705       -1.9119765137       -1.1114970490
 H         -3.1023658708       -2.6935290041       -1.9203763424
 H         -4.1123942077       -1.2956581665       -2.3169910827
 H         -4.3471405047       -2.1412911460       -0.7902377187
  46
        -51.58597138
 C         -3.8154517692       -1.8262003274       -1.2503703680
 C         -2.7488749298       -0.9629553003       -0.6683938613
 C         -1.4088825222       -1.2055221642       -0.6376794267
 N         -0.7532769580       -0.1723641452       -0.0106253499
 Si         0.9959928459        0.0319779320        0.1283279834
 C          1.5473089472        0.5296619282        1.9104438459
 C          2.8307582001        1.3618314150        1.8885179315
 C          0.4884477847        1.2540722961        2.7383587117
 C          1.7746697718       -1.6763310023       -0.2888413240
 C          3.2951792970       -1.5981756381       -0.4076027666
 C          1.4012545389       -2.7539862728        0.7286630120
 C          1.4919458467        1.3342037885       -1.2045968905
 C          1.2218972192        0.8045115746       -2.6138687962
 C          0.7565176768        2.6609420095       -1.0194423347
 C         -1.7169265863        0.7401432681        0.3452398173
 C         -2.9487277839        0.2966258313       -0.0316082762
 C         -4.2597795286        0.9767586026        0.1680358303
 H         -3.3836374037       -2.7304598602       -1.6723418274
 H         -4.3516899660       -1.2944974308       -2.0365224408
 H         -4.5396955977       -2.1077544474       -0.4859323713
 H         -0.8695755381       -2.0432414128       -1.0291044469
 H          1.7767260944       -0.3988079892        2.4440989030
 H          2.6569175982        2.3275443479        1.4209963055
 H          3.6199384180        0.8568153061        1.3385640387
 H          3.1832098250        1.5387833426        2.9039984247
 H          0.2551761070        2.2245448214        2.3065155385
 H          0.8541663955        1.4206616316        3.7512841139
 H         -0.4254231129        0.6695222816        2.7979252378
 H          1.3936620720       -1.9962815997       -1.2631486569
 H          3.7405963286       -1.3399715050        0.5500461533
 H          3.5948046334       -0.8518083084       -1.1387049939
 H          3.7029462372       -2.5600118321       -0.7165908544
 H          1.8525067665       -2.5410295481        1.6948627092
 H          1.7612272858       -3.7284716864        0.4004693536
 H          0.3246463066       -2.8134227354        0.8636217870
 H          2.5642708676        1.5372589157       -1.1240457059
 H          0.1686518118        0.5582250648       -2.7299698719
 H          1.8068426171       -0.0886457951       -2.8167367446
 H          1.4794690936        1.5561813165       -3.3587822643
 H         -0.3136771823        2.5190488393       -1.1483427652
 H          1.0934095034        3.3891596481       -1.7562648055
 H          0.9316170410        3.0758624080       -0.0299685195
 H         -1.4553085353        1.6502092209        0.8431997169
 H         -4.1209229752        1.9258167789        0.6802414283
 H         -4.9279071444        0.3530719006        0.7620197078
 H         -4.7442833456        1.1636352036       -0.7904248999
  46
        -51.58571421
 C         -3.9011467021       -2.0717778442       -0.1541029207
 C         -2.7901939139       -1.0783529267       -0.1701958708
 C         -1.4601375441       -1.3148758649        0.0083952250
 N         -0.7533463764       -0.1425699624       -0.0823712302
 Si         0.9740429756        0.1343585120        0.1591504855
 C          1.1486248248        0.7528468696        1.9784436936
 C          2.5865606700        1.0959458208        2.3645492363
 C          0.2415976614        1.9466236696        2.2736656554
 C          1.9974149392       -1.4793223943       -0.0696438730
 C          1.8678220921       -2.4502041685        1.1041819917
 C          1.6941591675       -2.1991727356       -1.3832282453
 C          1.4964262022        1.4780248115       -1.1227748719
 C          3.0131453717        1.5542284775       -1.3004343636
 C          0.8418286163        1.2976832440       -2.4934892605
 C         -1.6733845820        0.8517019762       -0.3146043830
 C         -2.9282914692        0.3249940904       -0.3789253384
 C         -4.2078854943        1.0506974311       -0.6183309986
 H         -3.5147131531       -3.0710191926        0.0317158973
 H         -4.4282962339       -2.0724357531       -1.1082405555
 H         -4.6232187894       -1.8255687472        0.6244947027
 H         -0.9638949966       -2.2441253034        0.1988059891
 H          0.8182287975       -0.0642763801        2.6296256887
 H          2.9241241370        1.9773289271        1.8247958409
 H          3.2631572686        0.2752384776        2.1402380439
 H          2.6538609547        1.3119060492        3.4301056640
 H          0.5219496668        2.8039807925        1.6656543204
 H          0.3237663250        2.2359118901        3.3204910761
 H         -0.7969423738        1.7021112795        2.0674424128
 H          3.0495797782       -1.1763476585       -0.1067840776
 H          0.8443813460       -2.7942323792        1.2232539855
 H          2.1764764403       -1.9810001064        2.0342197957
 H          2.4985117210       -3.3236401228        0.9405529428
 H          0.6453328493       -2.4748124563       -1.4470778936
 H          2.2913838805       -3.1070378350       -1.4644476544
 H          1.9282846325       -1.5663832114       -2.2347003883
 H          1.1681893212        2.4477914002       -0.7329900027
 H          3.3926250082        0.6371056774       -1.7442571546
 H          3.5174294997        1.7063162472       -0.3506386925
 H          3.2754240827        2.3797804415       -1.9609769039
 H          1.1972802493        0.3898975657       -2.9737201221
 H          1.0880748546        2.1383494919       -3.1412289892
 H         -0.2391548934        1.2333238927       -2.4113689835
 H         -1.3622097195        1.8725186742       -0.4119177829
 H         -4.0233698622        2.1154162805       -0.7393867679
 H         -4.8918393716        0.9067335985        0.2181250130
 H         -4.6981651577        0.6759826095       -1.5169223496
  46
        -51.57985529
 C         -4.0604843658       -0.4655350838        1.1671802029
 C         -2.7906000592       -0.3241731189        0.4000589191
 C         -1.5401875014       -0.1112361803        0.8951431985
 N         -0.6278702738       -0.0318308808       -0.1315296300
 Si         1.1126248420        0.1482694926        0.1062974491
 C          1.4024421054        1.4904072947        1.4691092637
 C          0.3708534704        2.6182457892        1.4128011879
 C          1.4749502535        0.9490265792        2.8961755573
 C          1.8083437963       -1.5628440486        0.6842821195
 C          0.8372292265       -2.2967834593        1.6090807268
 C          2.1755868457       -2.4928927216       -0.4716412746
 C          2.0716461941        0.7478067526       -1.4618031174
 C          1.7363386940        0.0566678710       -2.7851182510
 C          1.9824466934        2.2574517232       -1.6873495288
 C         -1.3368936480       -0.2106166049       -1.2944669417
 C         -2.6588339657       -0.3887438720       -1.0178805687
 C         -3.7680305674       -0.6128758700       -1.9878610373
 H         -3.8717478274       -0.3768127818        2.2344039862
 H         -4.5194739259       -1.4349208766        0.9726431841
 H         -4.7732112472        0.3048762729        0.8726142240
 H         -1.2286731148       -0.0216461585        1.9154870158
 H          2.3833778991        1.9335442421        1.2627806984
 H         -0.6207173067        2.2445965925        1.6530137024
 H          0.3277697963        3.0666346465        0.4250977234
 H          0.6235906178        3.3975864020        2.1310945920
 H          0.5168658906        0.5440621901        3.2116232423
 H          1.7365753581        1.7501899011        3.5869224314
 H          2.2261666196        0.1691013160        2.9849217173
 H          2.7288461846       -1.3782114185        1.2489513866
 H         -0.0992688138       -2.4975243124        1.0942665207
 H          0.6188844042       -1.7150593071        2.4988616887
 H          1.2628747348       -3.2487002492        1.9246742042
 H          1.2974594626       -2.7174600241       -1.0732154505
 H          2.5657261577       -3.4344141012       -0.0862111217
 H          2.9364379628       -2.0495230241       -1.1076878594
 H          3.1213482205        0.5201953379       -1.2390819480
 H          0.8362610822        0.4870790612       -3.2166684635
 H          1.5881720185       -1.0113516105       -2.6685137047
 H          2.5434056952        0.2116836190       -3.5010214983
 H          0.9525878114        2.5556194659       -1.8710493772
 H          2.5741477582        2.5391908824       -2.5578997177
 H          2.3585446964        2.8129110200       -0.8337076609
 H         -0.8471591191       -0.2043185351       -2.2443028968
 H         -3.3860149576       -0.6244526346       -3.0058313493
 H         -4.5159749257        0.1756279964       -1.9037321553
 H         -4.2635531694       -1.5633722537       -1.7894443540
