  18
        -27.69475916
 C          3.7263449734        0.5907345942       -0.0001071352
 C          2.2573839119        0.3640774781        0.0000082834
 C          1.2646766600        1.2919339717        0.0000354585
 C         -0.0131180254        0.6936617379        0.0000700634
 S         -1.6399887706        1.2755523798        0.0000105925
 C         -2.2571880304       -0.3608994850        0.0000081123
 C         -3.7274215571       -0.5939800754       -0.0001058355
 C         -1.2637033812       -1.2903224392        0.0000337933
 C          0.0124814896       -0.6917820601        0.0000693155
 S          1.6403023220       -1.2758641636        0.0000113109
 H          3.9376295102        1.6572820234       -0.0000613259
 H          4.1845043210        0.1404572585       -0.8805738057
 H          4.1846803828        0.1403368265        0.8802045319
 H          1.4349318589        2.3530222357        0.0000094147
 H         -4.2606516507        0.3531680364       -0.0000404756
 H         -4.0245182036       -1.1621007149        0.8814490945
 H         -4.0243942304       -1.1618966666       -0.8818356281
 H         -1.4356733713       -2.3511515698        0.0000078100
