18
 energy: -26.977277603262 gnorm: 0.000053455519 xtb: 6.4.1 (23d549d)
C        -3.72227371980000    0.53391463670000    0.00111403170000
C        -2.77537346270000   -0.39709853430000   -0.00140509380000
C        -1.34090320330000   -0.15981904950000   -0.00023321390000
C        -0.73444297260000    1.10330043310000    0.00069101540000
N         0.57190970870000    1.25567204110000    0.00048974870000
C         1.34091078330000    0.15983920870000   -0.00002374680000
C         2.77539306480000    0.39707838640000   -0.00090496060000
C         3.72224465160000   -0.53398751050000    0.00055891080000
C         0.73444857050000   -1.10325458770000    0.00000232060000
N        -0.57191059960000   -1.25563257010000   -0.00038369710000
H        -4.76528967140000    0.26775996680000   -0.00029063290000
H        -3.50324697920000    1.58819422570000    0.00468839060000
H        -3.03564626030000   -1.44716571450000   -0.00463247110000
H        -1.31199007720000    2.01738787910000    0.00130131970000
H         3.03572830630000    1.44709727880000   -0.00297471950000
H         3.50315526330000   -1.58823451190000    0.00290021110000
H         4.76527214930000   -0.26791450680000   -0.00028204080000
H         1.31198541750000   -2.01735118400000    0.00020830300000
