  24
        -28.55644959
 C          2.8848712534       -0.5956237253       -0.0003260413
 C          1.3861055580       -0.5553171636       -0.0001645414
 C          0.6655163752       -1.7383678282       -0.0003689210
 C         -0.7143970088       -1.7183711189        0.0000489692
 C         -1.4112614823       -0.5192031367        0.0001210548
 C         -2.9136489235       -0.5581004777        0.0007647829
 C         -0.6981808493        0.6834372216       -0.0002405063
 C         -1.4271022881        2.0005152331       -0.0012360054
 C          0.6997598941        0.6625749844        0.0001577959
 C          1.5105074779        1.9276400581        0.0011527836
 H          3.2378009677       -1.6239585969       -0.0016213279
 H          3.2867837115       -0.0946871130        0.8801285441
 H          3.2866448278       -0.0924774168       -0.8795742274
 H          1.1883933108       -2.6843024544       -0.0006995383
 H         -1.2604804086       -2.6511326688        0.0002456667
 H         -3.2596820581       -1.5889890418        0.0025795898
 H         -3.3188790360       -0.0671352320       -0.8835756244
 H         -3.3181256490       -0.0642221176        0.8838123173
 H         -2.5018773233        1.8610733236       -0.0040687773
 H         -1.1625011503        2.5826904818       -0.8835372727
 H         -1.1669543672        2.5817781828        0.8830052856
 H          0.8928884383        2.8176490541        0.0028228198
 H          2.1536674267        1.9608669176       -0.8781880721
 H          2.1547987880        1.9584815785        0.8797506279
