37
 energy: -65.909799258457 gnorm: 0.000046895251 xtb: 6.4.1 (23d549d)
F         6.72713302260000   -0.20388910550000   -0.13044066300000
C         5.43919016390000   -0.01262705000000    0.14899932230000
F         5.34303211250000    0.68297303610000    1.27566752930000
C         4.45818108980000   -0.46899779070000   -0.61669411380000
C         3.02451194210000   -0.33004752490000   -0.42933949400000
C         2.44741550960000    0.33116940470000    0.65783520510000
C         1.07644556970000    0.42780453060000    0.77504233640000
C         0.24165464160000   -0.12925956480000   -0.19090626090000
N        -1.15770222960000   -0.02487629660000   -0.07083707490000
C        -1.78095432560000    1.22654772090000   -0.07733056660000
C        -3.17500625490000    1.29979944470000    0.04480055600000
O        -3.96546100180000    0.18296892860000    0.15359038340000
C        -3.33963864320000   -1.03838617990000    0.15287799880000
C        -1.94820122100000   -1.17104013580000    0.05258552390000
C        -1.40141818840000   -2.44574854020000    0.12948151110000
C        -2.21487739990000   -3.56186763680000    0.25443507080000
C        -3.58630913050000   -3.42266351280000    0.31636071740000
C        -4.14630582450000   -2.15439022920000    0.27489193390000
C        -3.81883210170000    2.52313303220000    0.04148116040000
C        -3.09297651680000    3.69658600950000   -0.09953824110000
C        -1.72345469000000    3.63331064200000   -0.25581405280000
C        -1.07257240700000    2.40884190650000   -0.25078179490000
C         0.80775275680000   -0.79084408020000   -1.27825305750000
C         2.17788972560000   -0.88935415700000   -1.39099133550000
H         4.77879847880000   -1.01255357200000   -1.49384449720000
H         3.06767547140000    0.76697317570000    1.42336050900000
H         0.64006302610000    0.93271016520000    1.62401682110000
H        -0.33007659750000   -2.56861448270000    0.10090420890000
H        -1.76200129810000   -4.53998621720000    0.30663308820000
H        -4.22387152890000   -4.28761142660000    0.40858479200000
H        -5.21245931050000   -2.00801326890000    0.34205478100000
H        -4.89206287460000    2.53472004760000    0.14480044840000
H        -3.60360590220000    4.64651452660000   -0.09785843920000
H        -1.14611208120000    4.53547455510000   -0.38711599030000
H        -0.00371700020000    2.37423763640000   -0.39185847960000
H         0.16523023740000   -1.21891258400000   -2.03332443940000
H         2.60520861450000   -1.39993656430000   -2.24141979420000
