  53
        -62.36258234
 C         -1.5505697821        3.0035358802        1.0547155483
 C         -1.1258955041        2.6603039682       -0.1594889211
 C          0.0984854678        1.9625770743       -0.4470775216
 C          1.0722102012        1.4958865735        0.3976053837
 C          2.1592388705        0.8837619282       -0.2551208924
 C          3.2837824074        0.2617438747        0.5136918886
 C          2.8627960928       -1.1111901546        1.0586874990
 C          2.7207149053       -2.1512475571       -0.0518633533
 C          1.8803999663       -3.3636977231        0.3522442730
 C          0.4044074833       -3.0507601570        0.6108082021
 C         -0.3121905938       -2.4584888721       -0.6013601763
 C         -1.8122169608       -2.2677852585       -0.3746201318
 C         -2.1269929009       -1.1463976055        0.6135465134
 C         -3.6310134412       -0.9264631282        0.7594781111
 C         -3.9816237696        0.2856757772        1.6222543593
 C         -3.5957698938        0.1230484137        3.0907485380
 C         -4.0545075214        1.3127294241        3.9253339342
 C          2.0142156978        0.8748872442       -1.6272620674
 C          2.9142138433        0.3502625436       -2.6175925253
 C          2.6711651129        0.3156718860       -3.9253037437
 S          0.5188531113        1.6321388837       -2.1003672176
 H         -2.4718081737        3.5422789852        1.1918526742
 H         -0.9945924605        2.7673638674        1.9453614347
 H         -1.7192164848        2.9156782141       -1.0282484353
 H          1.0166316153        1.5922587964        1.4674385547
 H          3.5362527299        0.9148762884        1.3526389273
 H          4.1725764649        0.1539856489       -0.1087047389
 H          1.9118057090       -0.9912140236        1.5784602377
 H          3.5999378420       -1.4527852892        1.7885967274
 H          3.7157063554       -2.4960749357       -0.3450914670
 H          2.2694925545       -1.6884008022       -0.9293661874
 H          2.3074901435       -3.8111009124        1.2536690371
 H          1.9442615784       -4.1067081085       -0.4467023813
 H          0.3179917543       -2.3673797946        1.4558369166
 H         -0.0960383123       -3.9802928296        0.8947820007
 H         -0.1628285513       -3.1235949152       -1.4557707229
 H          0.1212701173       -1.4897226639       -0.8539987052
 H         -2.2500440673       -3.2027439455       -0.0160882788
 H         -2.2822138515       -2.0300574262       -1.3323790295
 H         -1.6614424552       -0.2206153460        0.2668683385
 H         -1.7022038602       -1.3910222572        1.5870991362
 H         -4.0885568548       -1.8221811422        1.1870969032
 H         -4.0611029275       -0.7803521263       -0.2347959997
 H         -5.0594979008        0.4578482370        1.5623801183
 H         -3.4802818717        1.1674152505        1.2163550737
 H         -2.5125131412        0.0253061699        3.1770122427
 H         -4.0464147674       -0.7915247394        3.4836335855
 H         -3.6004365735        2.2308646678        3.5590795024
 H         -3.7733983771        1.1826741076        4.9681156738
 H         -5.1357013600        1.4224875373        3.8731376506
 H          3.8485342060       -0.0388999518       -2.2351200762
 H          1.7479412733        0.6888214169       -4.3371884446
 H          3.3850796118       -0.0870071954       -4.6215488065
