  22
        -36.98723362
 C         -2.5038491183       -1.7542512991       -0.7649807042
 C         -2.5008209279       -0.6443240894       -0.0385466239
 C         -1.3752074465        0.2824378983        0.0725303873
 C         -1.6336573137        1.6537463661        0.1543247164
 N         -0.6944100998        2.5759443288        0.2086708315
 C          0.5660816452        2.1948698144        0.1659569928
 C          0.9775055482        0.8611326007        0.0748936194
 C          2.3912288031        0.5002946533        0.0580559032
 C          3.3536159070        1.2768364244       -0.4222433309
 C         -0.0305414443       -0.1146713603        0.0553188199
 C          0.3506140497       -1.5642999537        0.0425653962
 O          1.0534663857       -2.0695181767       -0.7848475048
 O         -0.1210680143       -2.2807241546        1.0838222468
 H         -3.3801527205       -2.3752986266       -0.8349299755
 H         -1.6458308056       -2.0769960255       -1.3306659730
 H         -3.4027618966       -0.3261186273        0.4700009835
 H         -2.6527730367        2.0170699939        0.1718685903
 H          1.2951689969        2.9898146960        0.2347407210
 H          2.6362705394       -0.4806715784        0.4410667970
 H          3.1537919783        2.2407148179       -0.8592721743
 H          4.3816305730        0.9593616091       -0.4160814356
 H         -0.7093853535       -1.7672774011        1.6529034190
