  80
        -93.64409296
 C         -9.6360151480        1.2121795814       -3.2938730219
 C         -8.1905578870        1.6934500244       -3.3254196618
 C         -7.2076488596        0.5609264322       -3.0372748072
 C         -5.7600249058        1.0459212790       -3.0557872935
 C         -4.7375842623       -0.0820669471       -2.9096467479
 C         -4.8291353580       -0.8746531545       -1.6033467774
 C         -4.6929667744       -0.0424773136       -0.3273296650
 C         -3.3412749249        0.6576572115       -0.2077426626
 C         -3.1667899260        1.3893332850        1.1246826871
 C         -2.8539925118        0.4317519854        2.2789546642
 O         -1.6430395533       -0.2651787997        2.0975094396
 C         -0.4502278373        0.3790668332        2.2947275872
 C         -0.3020998388        1.6634704282        2.8023041926
 C          0.9487217309        2.2287234463        2.9879859305
 C          1.1030066353        3.6137875141        3.5363314953
 C          2.0902513064        1.4897115025        2.6607725069
 O          3.2870510742        2.1182228921        2.8896369408
 C          4.4816438078        1.4938953764        2.4765889426
 C          4.6872420302        1.5660218568        0.9599436032
 C          5.8822956877        0.7391408580        0.4845724288
 C          5.6555985082       -0.7745959126        0.5139312127
 C          4.6555953889       -1.2583204087       -0.5352441385
 C          4.4536368228       -2.7703140129       -0.4601660227
 C          3.3663562821       -3.2856834890       -1.4046786402
 C          3.6490566699       -3.0739850758       -2.8927532742
 C          4.8960774401       -3.8027744940       -3.3881877932
 C          5.0480453755       -3.6875361060       -4.9002061757
 C          1.9421776383        0.2022089809        2.1607904691
 C          0.6916141113       -0.3612395256        1.9707321259
 C          0.5411311352       -1.7480869979        1.4245790824
 H        -10.3188518026        2.0324652238       -3.5032047139
 H         -9.8809572144        0.8030277288       -2.3158936468
 H         -9.7951182608        0.4348837161       -4.0383089611
 H         -8.0556750405        2.4849408578       -2.5841784253
 H         -7.9723194509        2.1209298067       -4.3069781365
 H         -7.3343086887       -0.2246975792       -3.7862932701
 H         -7.4416609385        0.1313058364       -2.0616838461
 H         -5.6147023192        1.7834433627       -2.2644863142
 H         -5.5730123296        1.5525470693       -4.0066108265
 H         -3.7356825657        0.3416063323       -3.0030127234
 H         -4.8702494731       -0.7825390078       -3.7384994495
 H         -4.0403355976       -1.6313505051       -1.6109519969
 H         -5.7837792860       -1.4037496342       -1.5735045131
 H         -4.8274888688       -0.7137576131        0.5236014267
 H         -5.4905460914        0.7015348847       -0.2828653333
 H         -3.2380881784        1.3818005535       -1.0173199685
 H         -2.5392193843       -0.0764611581       -0.3090718291
 H         -4.0739446324        1.9459132788        1.3687568058
 H         -2.3443650919        2.1015126071        1.0319931806
 H         -3.6126892597       -0.3536689060        2.3319274167
 H         -2.8575814896        0.9698194445        3.2355846888
 H         -1.1649972242        2.2538552114        3.0694259970
 H          0.1348608456        4.0750958297        3.7127885208
 H          1.6723237762        4.2290559651        2.8413976168
 H          1.6600253013        3.5843764804        4.4715498932
 H          4.5159152134        0.4575753669        2.8324332266
 H          5.2745999079        2.0506112321        2.9852490672
 H          4.8407633887        2.6126883342        0.6889330909
 H          3.7764875659        1.2343676083        0.4602421113
 H          6.7452017802        0.9815406918        1.1099410392
 H          6.1248704788        1.0328532978       -0.5391851714
 H          5.3198004003       -1.0813922842        1.5066352789
 H          6.6132695594       -1.2699901475        0.3347733300
 H          5.0244174112       -0.9818267224       -1.5242458858
 H          3.6906789022       -0.7686295535       -0.3915948386
 H          4.1684949680       -3.0356983668        0.5620989375
 H          5.3976199283       -3.2759304847       -0.6704244093
 H          2.4244321798       -2.7887378030       -1.1585651231
 H          3.2305538051       -4.3552124094       -1.2238672848
 H          3.7449179314       -2.0074611647       -3.1035898331
 H          2.7858105761       -3.4384439247       -3.4559584251
 H          4.8315824486       -4.8572466662       -3.1092848705
 H          5.7836169314       -3.3849402921       -2.9102742161
 H          4.1891136181       -4.1241609709       -5.4055800623
 H          5.9434609154       -4.2051641757       -5.2368904362
 H          5.1234138887       -2.6434415447       -5.1971661317
 H          2.8037276734       -0.3959698307        1.9110125286
 H          1.5106115311       -2.2123410615        1.2636774711
 H         -0.0022992713       -1.7223004171        0.4806169754
 H         -0.0387689352       -2.3599519098        2.1133304614
