  32
        -48.56212032
 C          5.2140134916       -0.5149573105        0.3400847388
 C          3.7373335546       -0.3109822371        0.1963058870
 C          3.2038732618        0.7273711117       -0.5607394207
 C          1.8439268326        0.9337721936       -0.6891496324
 C          1.2894691484        2.0602993371       -1.5046623128
 C          0.9557449903        0.0643201544       -0.0340226727
 O         -0.3661596338        0.3270049687       -0.2095530339
 C         -1.3141180050       -0.5286027140        0.3904807954
 C         -2.7019820088       -0.0585307119        0.0394686246
 C         -3.7450575598       -0.9715516217       -0.0427029423
 C         -5.0269298200       -0.5437385973       -0.3385711254
 C         -5.2767266678        0.7995956912       -0.5624763310
 C         -4.2395357054        1.7130045964       -0.4855547936
 C         -2.9585556589        1.2874006636       -0.1815001446
 C          1.4582703966       -0.9802672544        0.7284705084
 C          2.8291519745       -1.1423529758        0.8281167782
 F          3.2844422069       -2.1743121848        1.5804529773
 H          5.7445385061       -0.0842066617       -0.5051210888
 H          5.4481355894       -1.5750218292        0.4083804673
 H          5.5720778845       -0.0352951329        1.2516319343
 H          3.8826156382        1.3966585176       -1.0693345219
 H          2.0795347414        2.5725749887       -2.0464839413
 H          0.7836768046        2.7761120539       -0.8577412027
 H          0.5520554823        1.6830323126       -2.2107690893
 H         -1.1943027474       -0.5149986377        1.4864704098
 H         -1.1722360440       -1.5618546119        0.0432113145
 H         -3.5525503177       -2.0216415689        0.1262353577
 H         -5.8315764844       -1.2616527035       -0.3994352445
 H         -6.2768143933        1.1323253023       -0.7978657179
 H         -4.4287171262        2.7619228519       -0.6606812643
 H         -2.1461981921        1.9946744233       -0.1226821284
 H          0.8222204915       -1.6754452320        1.2513079001
