  20
        -31.22616972
 C         -3.7537071925        1.1181423368        0.0340121436
 C         -3.1187463571       -0.0463842283       -0.0282741693
 C         -1.6763175711       -0.2419561232       -0.0224268848
 C         -1.1609098180       -1.5460491905        0.0257929613
 N          0.1198785859       -1.8280339325        0.0303492541
 C          0.9942076343       -0.8257053964       -0.0116119011
 C          2.3664855810       -1.1896265626        0.0001904442
 N          3.4784572257       -1.4680993067        0.0065828175
 C          0.6162165035        0.5323367150       -0.0609426262
 C          1.6340764455        1.5745070384       -0.1075980708
 C          1.4359629701        2.8545854479        0.1829266333
 C         -0.7505546786        0.7975967613       -0.0730194660
 H         -4.8286630639        1.1681787398        0.0291967480
 H         -3.2398163767        2.0622749827        0.0970396174
 H         -3.6942756729       -0.9623297103       -0.0779527250
 H         -1.8240239582       -2.4011478267        0.0584109389
 H          2.6254190730        1.2333555173       -0.3775191936
 H          0.4794770321        3.2415356822        0.4923781177
 H          2.2406818110        3.5672140969        0.1362810594
 H         -1.0889171755        1.8193498579       -0.1447328226
