  24
        -37.67354869
 C          4.2216821289       -0.9482936852       -0.0124519255
 C          3.2834459384       -0.0074589779        0.0486587615
 C          1.8629526494       -0.2376177404        0.0422446661
 N          1.2867331041       -1.4603814449       -0.0307062200
 N         -0.0471077651       -1.4096737636       -0.0264558500
 C         -0.3607576554       -0.1235627860        0.0357468730
 N         -1.6460940610        0.3583891228        0.1193948311
 C         -2.8527637770       -0.2878011546        0.0396388272
 C         -2.8063618291       -1.7590843095       -0.2454796481
 O         -3.8724846388        0.3496076153        0.1896919499
 C          0.8115873932        0.6832407695        0.0763935426
 C          0.9229625108        2.1238124092        0.1534459033
 C          0.0679996498        3.0000511352       -0.3628944657
 H          5.2665638008       -0.6941674365       -0.0004184399
 H          3.9929227604       -1.9988295329       -0.0775728538
 H          3.5701803307        1.0332032025        0.1070960116
 H          1.7440154498       -2.3543276118       -0.0915601810
 H         -1.7120109644        1.3490690632        0.3245052375
 H         -2.2403821899       -1.9451511304       -1.1540334214
 H         -3.8207513364       -2.1336271432       -0.3474929926
 H         -2.2966748969       -2.2709796637        0.5663875834
 H          1.8026202233        2.4863959544        0.6717777631
 H         -0.7910633730        2.7074291475       -0.9430418238
 H          0.2243300262        4.0594385861       -0.2539718528
  24
        -37.67326957
 C          4.1281898970       -0.6887611849        0.1407923488
 C          3.1504233432        0.1519403434       -0.1825668178
 C          1.7420301298       -0.1312694543       -0.0729954412
 N          1.2369708037       -1.3842243565        0.0234572933
 N         -0.0981809372       -1.4127268386        0.0342831274
 C         -0.4839448842       -0.1486774695       -0.0513863543
 N         -1.7941232334        0.2711720537       -0.0503459131
 C         -2.9647452953       -0.4405955266        0.0219080184
 C         -2.8352770720       -1.9305807684        0.1197284332
 O         -4.0181794567        0.1576938231        0.0032211275
 C          0.6391162010        0.7243577982       -0.1214208888
 C          0.5978835011        2.1672698197       -0.2052041055
 C          1.5172397964        2.9920270847        0.2825105445
 H          5.1616562661       -0.4177196085        0.0174234542
 H          3.9415643472       -1.6654961793        0.5555447690
 H          3.3828532370        1.1342042835       -0.5697733429
 H          1.7482683123       -2.2506525628        0.0391978081
 H         -1.9228796762        1.2745496183       -0.1063513853
 H         -2.2937158269       -2.3112255928       -0.7419620559
 H         -3.8268505261       -2.3711617224        0.1676686329
 H         -2.2623826169       -2.1926292228        1.0051098310
 H         -0.2741685810        2.5786457071       -0.7013519793
 H          2.3770636320        2.6353122910        0.8229418306
 H          1.4258101999        4.0590806377        0.1755641151
  24
        -37.67295561
 C          4.0335557610        0.5440558253        0.1686927720
 C          3.2846253095       -0.5194249548       -0.1035877157
 C          1.8443232377       -0.5501909919       -0.0858429866
 N          1.1655378814       -1.7215056453       -0.0151741946
 N         -0.1595156196       -1.5587005582        0.0146037209
 C         -0.3602795692       -0.2505449024       -0.0410618223
 N         -1.5963467247        0.3499097551       -0.0931573228
 C         -2.8565599393       -0.1828899068       -0.0106932699
 C         -2.9418790745       -1.6601544380        0.2322888417
 O         -3.8151310171        0.5497573649       -0.1251477173
 C          0.8756979394        0.4539657582       -0.1044966608
 C          1.0723885939        1.8828258793       -0.2449799281
 C          0.3503601761        2.8181999348        0.3607395039
 H          5.1077299623        0.4954012767        0.1287590228
 H          3.6017925420        1.4866897852        0.4548035748
 H          3.7555254907       -1.4646817953       -0.3470674235
 H          1.5510715295       -2.6490964515        0.0553505926
 H         -1.5690520721        1.3494780022       -0.2637768178
 H         -2.4816876222       -2.1930727676       -0.5954399921
 H         -3.9854225948       -1.9451695401        0.3293462497
 H         -2.3926013945       -1.9210196432        1.1327135518
 H          1.8776496431        2.1699855899       -0.9110634661
 H         -0.4221397763        2.5823093936        1.0741049049
 H          0.5362503534        3.8651406018        0.1929088134
  24
        -37.67074253
 C          3.9386618322        0.6077550895        0.4054525492
 C          3.1947852751       -0.3475925799       -0.1391702424
 C          1.7512773239       -0.4036118185       -0.1410070269
 N          1.1318562736       -1.6008272173       -0.2972929717
 N         -0.1965876189       -1.5275799570       -0.1977104520
 C         -0.4632359971       -0.2488960897        0.0190050755
 N         -1.7294501705        0.2723172283        0.1571466721
 C         -2.9583733856       -0.3362304983        0.1289473212
 C         -2.9650803506       -1.8194913846       -0.0870264871
 O         -3.9526395731        0.3403269703        0.2773689724
 C          0.7312531069        0.5268435016        0.0618714987
 C          0.7694021189        1.9689285789        0.2180059851
 C          1.6019902210        2.7868281854       -0.4117033582
 H          5.0132641064        0.5569518802        0.3853566448
 H          3.5008597646        1.4609433783        0.8925231397
 H          3.6725565558       -1.2075031195       -0.5953141705
 H          1.5683506718       -2.4987425939       -0.4295516269
 H         -1.7673996286        1.2751427790        0.2960279456
 H         -2.4841354313       -2.0557900963       -1.0323103440
 H         -3.9916919630       -2.1740829547       -0.0866224693
 H         -2.3958978832       -2.3091856669        0.6984407022
 H          0.0147122756        2.3808330791        0.8794687454
 H          2.3460523348        2.4205102612       -1.0983256593
 H          1.5616808238        3.8523736379       -0.2654632062
  24
        -37.66884822
 C          4.1664832802       -0.0160147282        0.4371383720
 C          3.0176452993        0.5110668449        0.0239425812
 C          1.7519575879       -0.1740784372       -0.0140752042
 N          1.6232813243       -1.5214223796        0.0635835192
 N          0.3619386835       -1.9274437655       -0.0711880907
 C         -0.3543127133       -0.8229504520       -0.2359860266
 N         -1.7286479390       -0.9421676959       -0.4068631074
 C         -2.6867968997       -0.0883026812        0.0698720562
 C         -4.0879898285       -0.6169457929       -0.1614049809
 O         -2.4478785732        0.9702329004        0.5979575309
 C          0.4638298372        0.3311518638       -0.2178477943
 C          0.0606924252        1.7101769626       -0.4065895552
 C          0.6081866697        2.7438217298        0.2183207486
 H          5.0791354314        0.5529856900        0.4233694420
 H          4.2421181513       -1.0206422643        0.8193897459
 H          2.9817476412        1.5337232637       -0.3250802108
 H          2.3577233211       -2.2020126719        0.1644968098
 H         -2.0131469923       -1.8811895053       -0.6493149988
 H         -4.2353098166       -0.8497802030       -1.2135613773
 H         -4.8079676998        0.1349133112        0.1477989951
 H         -4.2448910213       -1.5210108538        0.4235782304
 H         -0.7511947241        1.8647062874       -1.1035502534
 H          1.3753918565        2.6206041424        0.9643888821
 H          0.2765147979        3.7504278168        0.0320577929
  24
        -37.66744431
 C          3.8314995201        0.6709075400        0.4159696552
 C          3.1845645799       -0.4868849591        0.3375026961
 C          1.8006880777       -0.6552911217       -0.0330771604
 N          1.3561684261       -1.8318962663       -0.5392728140
 N          0.0661354368       -1.8060747193       -0.8552696140
 C         -0.3619889290       -0.5924222960       -0.5373618289
 N         -1.6929571158       -0.2513187421       -0.7589204094
 C         -2.6408551219        0.1128870043        0.1581218306
 C         -2.1628435047        0.3012540953        1.5745663206
 O         -3.7895417682        0.2726055365       -0.1888638108
 C          0.6945892725        0.2003472861       -0.0153865109
 C          0.6670744956        1.5771696538        0.4334087484
 C         -0.1534694480        2.5093219621       -0.0353537839
 H          4.8675845770        0.7110538238        0.7040113748
 H          3.3602635237        1.6077108693        0.1776532303
 H          3.7124624601       -1.4125082737        0.5368577154
 H          1.9001643584       -2.6590818234       -0.7276377677
 H         -2.0741590258       -0.5794726907       -1.6381584963
 H         -1.4601077518       -0.4809916411        1.8503169953
 H         -3.0231639434        0.2815304698        2.2375096642
 H         -1.6663673521        1.2648566016        1.6684155329
 H          1.3921913318        1.8244740911        1.1990173602
 H         -0.8733403056        2.2993361853       -0.8079751888
 H         -0.1262071762        3.5198254457        0.3349173373
  24
        -37.66570235
 C          4.2486451044       -0.9147673787       -0.0809503493
 C          3.3004774385        0.0144675358        0.0040125524
 C          1.8836882209       -0.2333240923        0.0350116396
 N          1.3186629948       -1.4627878773       -0.0167305749
 N         -0.0110794383       -1.4291215353        0.0251073427
 C         -0.3374786472       -0.1510718546        0.0843337829
 N         -1.6402783920        0.2964985882        0.2014412160
 C         -2.7799993917       -0.4329388440       -0.0234267721
 C         -4.0301858954        0.3754392589        0.2720654414
 O         -2.7902332907       -1.5681646370       -0.4211650489
 C          0.8203085382        0.6750602089        0.0929350753
 C          0.9089381851        2.1158958124        0.1609895778
 C          0.0047377778        2.9742813952       -0.3000958497
 H          5.2904054348       -0.6479160382       -0.0966106185
 H          4.0302800930       -1.9677048723       -0.1397817398
 H          3.5769590630        1.0586043948        0.0542160524
 H          1.7837462353       -2.3520754624       -0.0901692476
 H         -1.7297729529        1.2566655447        0.5027616583
 H         -4.0390372655        0.6834746015        1.3155181218
 H         -4.9043892612       -0.2367336369        0.0725749524
 H         -4.0643957891        1.2628408304       -0.3566940317
 H          1.8109320524        2.4989269680        0.6232333474
 H         -0.8791371723        2.6590838625       -0.8289915101
 H          0.1445790767        4.0373153284       -0.2044489646
  24
        -37.66412329
 C          3.4981275108        0.3897206898       -1.2280544024
 C          3.0905408317       -0.2843987642       -0.1596456228
 C          1.7173278968       -0.4205152763        0.2729054364
 N          1.3350926944       -1.5499451036        0.9227145308
 N          0.0330123116       -1.5975044358        1.1760353906
 C         -0.4620018832       -0.4677755918        0.6964791400
 N         -1.8182043573       -0.1624828283        0.8017555003
 C         -2.7273300928       -0.1437048134       -0.2174155441
 C         -2.1712695474       -0.4335741588       -1.5916849609
 O         -3.8944687864        0.0882159018        0.0012497884
 C          0.5561849738        0.3442407472        0.1258386248
 C          0.3391020072        1.7080679928       -0.3085712062
 C          1.2568893687        2.6646264820       -0.3773377960
 H          4.5369058139        0.4214203857       -1.5067514728
 H          2.8085906298        0.9213000212       -1.8603678964
 H          3.8058810346       -0.8428659477        0.4334660254
 H          1.9214658259       -2.3289889561        1.1782971082
 H         -2.2159897576       -0.1689755204        1.7321219713
 H         -1.5433761783        0.3844793774       -1.9353084856
 H         -2.9989270574       -0.5589157898       -2.2838771106
 H         -1.5718989630       -1.3409363122       -1.5635486144
 H         -0.6975981409        1.9531985775       -0.5027038123
 H          2.2922776232        2.4873663387       -0.1435765793
 H          0.9914164813        3.6692636418       -0.6575902377
