  15
        -20.98591093
 C          0.7823597008        2.0149232553        0.0000060910
 C          0.0922181161        0.6965765045       -0.0000055253
 C          0.5589855963       -0.5879247963        0.0000049665
 C          1.9686308656       -1.0699728213       -0.0000085431
 C         -0.5983061471       -1.4185566148        0.0000181142
 C         -1.6668549105       -0.5833587099       -0.0000107631
 O         -1.2632438231        0.6993789555       -0.0000026390
 H          1.8586923170        1.8746437248       -0.0007282433
 H          0.5003456602        2.5898693024        0.8814163806
 H          0.4992054702        2.5904336446       -0.8806622731
 H          2.6663834996       -0.2371358853        0.0005595625
 H          2.1576767868       -1.6821288486       -0.8811067248
 H          2.1573578982       -1.6830642940        0.8805017995
 H         -0.6135486435       -2.4893814043        0.0000339101
 H         -2.7232484134       -0.7642621617       -0.0000242414
