24
 energy: -37.664123285938 gnorm: 0.000076351539 xtb: 6.4.1 (23d549d)
C         3.49812751080000    0.38972068980000   -1.22805440240000
C         3.09054083170000   -0.28439876420000   -0.15964562280000
C         1.71732789680000   -0.42051527630000    0.27290543640000
N         1.33509269440000   -1.54994510360000    0.92271453080000
N         0.03301231160000   -1.59750443580000    1.17603539060000
C        -0.46200188320000   -0.46777559180000    0.69647914000000
N        -1.81820435730000   -0.16248282830000    0.80175550030000
C        -2.72733009280000   -0.14370481340000   -0.21741554410000
C        -2.17126954740000   -0.43357415880000   -1.59168496090000
O        -3.89446878640000    0.08821590180000    0.00124978840000
C         0.55618497380000    0.34424074720000    0.12583862480000
C         0.33910200720000    1.70806799280000   -0.30857120620000
C         1.25688936870000    2.66462648200000   -0.37733779600000
H         4.53690581390000    0.42142038570000   -1.50675147280000
H         2.80859062980000    0.92130002120000   -1.86036789640000
H         3.80588103460000   -0.84286594770000    0.43346602540000
H         1.92146582590000   -2.32898895610000    1.17829710820000
H        -2.21598975760000   -0.16897552040000    1.73212197130000
H        -1.54337617830000    0.38447937740000   -1.93530848560000
H        -2.99892705740000   -0.55891578980000   -2.28387711060000
H        -1.57189896300000   -1.34093631220000   -1.56354861440000
H        -0.69759814090000    1.95319857750000   -0.50270381230000
H         2.29227762320000    2.48736633870000   -0.14357657930000
H         0.99141648130000    3.66926364180000   -0.65759023770000
