  53
        -62.36597736
 C          4.0911045541       -0.0591487310       -1.4053306585
 C          2.8362248165        0.3641370396       -1.5327559844
 C          1.7233966951       -0.1187218605       -0.7607239360
 S          1.9353183890       -1.4544805253        0.3315384843
 C          0.2589313557       -1.4082176719        0.7915600142
 C         -0.2424109856       -2.3322939414        1.7729468574
 C          0.4597614865       -3.3275723652        2.3084083009
 C         -0.4155345029       -0.4092359982        0.1231966036
 C         -1.8896189999       -0.1656437513        0.2443535453
 C         -2.6756066504       -0.8810260151       -0.8676750106
 C         -2.7124211598       -2.4016168010       -0.7107012136
 C         -3.6965142886       -2.8915582314        0.3536404321
 C         -5.1514102897       -2.8423417192       -0.1088946547
 C         -6.1014314472       -3.3489648647        0.9695272732
 C          0.4201152734        0.3290282583       -0.7559135795
 C         -0.0554957008        1.5197227623       -1.5327685683
 C         -0.0069967642        2.8053481338       -0.6917800843
 C          1.4153418572        3.2363818933       -0.3477842682
 C          1.4322271478        4.5142789516        0.4878227610
 C          2.8316973047        4.8972310739        0.9696632386
 C          3.7768291676        5.2733437835       -0.1655530617
 H          4.8844828481        0.3342818222       -2.0158866412
 H          4.3614121361       -0.8120274071       -0.6835606213
 H          2.6023267390        1.1267842747       -2.2629873548
 H         -1.2680920770       -2.1808757557        2.0789554061
 H          1.4819808356       -3.5138600482        2.0233309574
 H          0.0337558102       -3.9857101084        3.0447944625
 H         -2.0853600742        0.9055587180        0.1751542934
 H         -2.2485973655       -0.4993233268        1.2176786053
 H         -2.2163881168       -0.6414996389       -1.8293353071
 H         -3.6946563664       -0.4903466319       -0.8828452766
 H         -1.7081350914       -2.7528763431       -0.4654842299
 H         -2.9884013964       -2.8495311064       -1.6683640311
 H         -3.5939019528       -2.2936435949        1.2613018129
 H         -3.4483383908       -3.9234831522        0.6132324004
 H         -5.2633861622       -3.4542541419       -1.0070515934
 H         -5.4230086656       -1.8179642303       -0.3714092307
 H         -5.8643785023       -4.3773631186        1.2340572374
 H         -7.1313621821       -3.3128850692        0.6218599312
 H         -6.0212457336       -2.7388702767        1.8670000420
 H         -1.0827637568        1.3541620347       -1.8606917322
 H          0.5557173921        1.6557368382       -2.4260836747
 H         -0.5665656591        2.6534151407        0.2342477690
 H         -0.4994368249        3.6054737010       -1.2503689918
 H          1.9715816663        3.3978774045       -1.2723366719
 H          1.9125809502        2.4387005080        0.2079790597
 H          0.7900105355        4.3721952594        1.3610213249
 H          1.0143361275        5.3370619273       -0.0978726020
 H          3.2573413085        4.0635441831        1.5327940138
 H          2.7436794172        5.7464226970        1.6518512821
 H          3.9832019023        4.4160178915       -0.8008177317
 H          4.7225985009        5.6317595205        0.2346884503
 H          3.3429817248        6.0620175784       -0.7769195211
