  14
        -20.44255133
 C         -2.6858134543       -0.1510960634       -0.0000003052
 C         -1.2333793664        0.1563112689        0.0000001035
 C         -0.6139796430        1.3654447398       -0.0000001351
 N          0.7414770413        1.3399475190        0.0000008714
 C          1.2105376183        0.1493150279       -0.0000029766
 C          2.6476959997       -0.2066001496       -0.0000001649
 S         -0.0316489550       -1.1005636201        0.0000005976
 H         -3.2575517359        0.7739419098        0.0000429862
 H         -2.9552594660       -0.7333293193        0.8809764300
 H         -2.9552731373       -0.7332533812       -0.8810234103
 H         -1.1130223135        2.3176360003        0.0000048075
 H          3.2391369343        0.7048726205       -0.0000907578
 H          2.8937780638       -0.7974777081       -0.8814602649
 H          2.8938107601       -0.7973154726        0.8815605415
