  44
        -76.31773425
 C         -5.0261100995       -4.0330768222       -0.0054563237
 O         -3.6377058301       -4.2225789720        0.0935264618
 C         -2.8315549561       -3.1181411564        0.0928335582
 C         -3.2806339217       -1.8113191421        0.0089959033
 C         -2.3384541339       -0.7871945883        0.0131863294
 C         -2.4582324345        0.6420111447       -0.0313528810
 C         -3.5554125841        1.4921626587       -0.1306125412
 C         -3.3276406224        2.8568375261       -0.1787091737
 O         -4.3047996633        3.8092256447       -0.2683448987
 C         -5.6439655874        3.3867369341       -0.3083442187
 C         -2.0163262880        3.3575086512       -0.1490518998
 C         -0.9231411415        2.5262394757       -0.0512327960
 C         -1.1468045858        1.1578158999        0.0298707546
 N         -0.2441940825        0.1113956098        0.1015283166
 C          1.1430974073        0.2294786726        0.1807255741
 C          1.7267693854        1.1210324790        1.0802306081
 C          3.0980094170        1.2325035624        1.1532844077
 C          3.9325528579        0.4583665733        0.3418934942
 C          5.3684681725        0.6255070301        0.4791684967
 C          6.3394232237       -0.0054467430       -0.1657106928
 F          6.2289087212       -0.9457841149       -1.0971784125
 F          7.6319637758        0.2358855041        0.0505432955
 C          3.3392784613       -0.4329599513       -0.5557204135
 C          1.9673756848       -0.5428277974       -0.6370109227
 C         -0.9594548390       -1.0733964422        0.0900890607
 C         -0.5169579803       -2.3849377676        0.2051974934
 C         -1.4582235511       -3.3896724277        0.1997288658
 H         -5.4624348067       -5.0307357495        0.0051674195
 H         -5.2986747634       -3.5299319490       -0.9394455288
 H         -5.4162368330       -3.4599521266        0.8426162426
 H         -4.3290549997       -1.5681955144       -0.0516861722
 H         -4.5483352901        1.0748655109       -0.1745868972
 H         -6.2394875528        4.2962911053       -0.3706040410
 H         -5.9200160706        2.8359541226        0.5973311083
 H         -5.8441875128        2.7639287807       -1.1868809851
 H         -1.8898333451        4.4265339960       -0.2109787145
 H          0.0754577810        2.9347957269       -0.0531869914
 H          1.0976108440        1.7071107576        1.7325687100
 H          3.5369458657        1.9230602006        1.8584585550
 H          5.7011417103        1.3571759458        1.2014851483
 H          3.9493062486       -1.0393588026       -1.2046067727
 H          1.5219580405       -1.2167472365       -1.3527051167
 H          0.5309107732       -2.6190892157        0.3106272249
 H         -1.1597021942       -4.4223834316        0.2832526942
  44
        -76.31724177
 C         -5.2523373472       -4.0979991867        0.2804744212
 O         -3.8720186162       -4.3580130895        0.2362369420
 C         -3.0163797303       -3.2954951531        0.1496829328
 C         -3.4066976912       -1.9675647015        0.1013476422
 C         -2.4193482776       -0.9927900027        0.0071856323
 C         -2.4751387855        0.4416543789       -0.0337268446
 C         -3.5211745509        1.3484240386       -0.0334421155
 C         -3.2358342897        2.7071974052       -0.1110807841
 O         -4.3224257316        3.5381983014       -0.0964591747
 C         -4.1133359163        4.9252790562       -0.1755336410
 C         -1.9113354834        3.1426028971       -0.2089801802
 C         -0.8576109685        2.2452915728       -0.2111459321
 C         -1.1368132643        0.8939211647       -0.1022426097
 N         -0.2839705067       -0.1967506385       -0.1130228079
 C          1.1077519307       -0.1484685543       -0.1763382233
 C          1.8252287185        0.7155440807        0.6506252054
 C          3.2014338528        0.7670466512        0.5882902352
 C          3.9073861812       -0.0491891658       -0.2992174597
 C          5.3548443427       -0.0493104962       -0.4141642380
 C          6.2365478318        0.6881408815        0.2457795643
 F          6.0039172584        1.6092089745        1.1743534187
 F          7.5516872240        0.5971825000        0.0505276882
 C          3.1801181483       -0.9146866150       -1.1215620510
 C          1.8044452220       -0.9644663176       -1.0674184521
 C         -1.0553796431       -1.3452053441       -0.0484448220
 C         -0.6686065850       -2.6766790951        0.0314676196
 C         -1.6543516703       -3.6339630118        0.1240247650
 H         -5.7347079908       -5.0721820491        0.3445329764
 H         -5.5946938432       -3.5841029383       -0.6240424987
 H         -5.5220867147       -3.5030953519        1.1595467797
 H         -4.4416514912       -1.6699760107        0.1416046537
 H         -4.5491496488        1.0290103924        0.0194161884
 H         -5.1048523503        5.3743349715       -0.1387198324
 H         -3.6252047388        5.2082781324       -1.1142971870
 H         -3.5200233428        5.2938188795        0.6680990618
 H         -1.6875440871        4.1941911900       -0.2909168905
 H          0.1549454999        2.6053165260       -0.3102050341
 H          1.2943469986        1.3318321017        1.3599643892
 H          3.7274822297        1.4401784123        1.2449028506
 H          5.7808889122       -0.7374058690       -1.1302496179
 H          3.7064896770       -1.5488386994       -1.8198565486
 H          1.2572462301       -1.6196536334       -1.7278043017
 H          0.3717577590       -2.9625419555        0.0374938634
 H         -1.3995268903       -4.6799298750        0.1853288175
  44
        -76.31628968
 C         -3.9413628537       -5.3958628473        0.5151276098
 O         -4.2137336693       -4.0274277542        0.3512975545
 C         -3.1667312409       -3.1487132782        0.3065042511
 C         -3.5134116223       -1.8126678337        0.1324145904
 C         -2.5106605024       -0.8606073809        0.0858220480
 C         -2.5193401806        0.5640513766       -0.1053749373
 C         -3.5359997940        1.4878504329       -0.2704221639
 C         -3.2086012021        2.8332026372       -0.4057764320
 O         -4.2670917578        3.6825664839       -0.5738525027
 C         -4.0149606436        5.0577953424       -0.7120397958
 C         -1.8726210942        3.2394628946       -0.3534108344
 C         -0.8478319261        2.3235618921       -0.1878185076
 C         -1.1686594350        0.9812064160       -0.0846886663
 N         -0.3496446077       -0.1180858315        0.1172131511
 C          1.0410568843       -0.0973502290        0.2030092416
 C          1.6979929289       -0.7791943897        1.2273431597
 C          3.0731164172       -0.7547290467        1.3055803990
 C          3.8399868515       -0.0470144501        0.3753311025
 C          5.2840852294       -0.0609095610        0.5251336912
 C          6.1977520923        0.5525545518       -0.2136016739
 F          6.0081057985        1.3306214700       -1.2735512605
 F          7.5057398516        0.4645049233        0.0265803546
 C          3.1742091230        0.6340527515       -0.6470627262
 C          1.7987052417        0.6061436252       -0.7333892641
 C         -1.1555998665       -1.2399382994        0.2234831061
 C         -0.8118726202       -2.5731319550        0.3646513528
 C         -1.8230246205       -3.5176564091        0.4105632550
 H         -4.9121615384       -5.8893012851        0.5261550739
 H         -3.4256736368       -5.5956432389        1.4605895832
 H         -3.3460289440       -5.7923751768       -0.3143608381
 H         -4.5522910051       -1.5453603511        0.0310738732
 H         -4.5717530412        1.1915241905       -0.2905373332
 H         -4.9909931204        5.5240331563       -0.8386468935
 H         -3.3982018970        5.2698110799       -1.5919761770
 H         -3.5314678566        5.4723498679        0.1790616153
 H         -1.6160261400        4.2835045282       -0.4362168833
 H          0.1739776602        2.6656153512       -0.1278540525
 H          1.1201215941       -1.3072949982        1.9703257186
 H          3.5680994360       -1.2821166047        2.1079898141
 H          5.6774898634       -0.6429454900        1.3462818484
 H          3.7314858473        1.1810717277       -1.3895160806
 H          1.2990878019        1.1140083469       -1.5440875029
 H          0.2192202350       -2.8864930161        0.4236651745
 H         -1.5489275471       -4.5544659684        0.5232821644
