  44
        -76.31949527
 C          0.0181253033        5.1726061237       -0.2598834722
 O         -1.3581577433        4.9170880430       -0.1364930792
 C         -1.7785052382        3.6212256828       -0.0660063481
 C         -3.1671439922        3.4543328975        0.0544833200
 C         -3.7345311704        2.2030119985        0.1160973671
 C         -0.9331529110        2.5215573128       -0.1088169525
 C         -1.5107678004        1.2625365949       -0.0184222934
 C         -2.9067211427        1.0868932895        0.0754709497
 C         -3.1424316016       -0.3288974809        0.0920621394
 C         -4.2842747158       -1.1155125611        0.1917093891
 C         -4.1499237393       -2.4842674398        0.2047365589
 C         -2.8875446445       -3.0944434324        0.1382533446
 O         -2.9039651172       -4.4582286129        0.1820752495
 C         -1.6810359972       -5.1478288267        0.1301188156
 C         -1.7343176023       -2.3292376937        0.0379477586
 C         -1.8796147980       -0.9492529064       -0.0025843638
 N         -0.8973761727        0.0230610074       -0.0675880023
 C          0.4756287134       -0.2063463638       -0.1672252796
 C          1.3659123581        0.4457208206        0.6849288421
 C          2.7235140229        0.2257361860        0.5850894177
 C          3.2348263261       -0.6611165499       -0.3657693340
 C          4.6509365703       -0.9423187612       -0.5236747354
 C          5.6748129743       -0.4239738749        0.1394279326
 F          5.6476580393        0.4815446955        1.1106053199
 F          6.9408277585       -0.7629441247       -0.0979405283
 C          2.3343627806       -1.3151160717       -1.2116157111
 C          0.9777267996       -1.0911048716       -1.1206991527
 H          0.1152971404        6.2566333335       -0.2933796050
 H          0.4272088812        4.7451753104       -1.1815641032
 H          0.5787266072        4.7867834495        0.5982635919
 H         -3.7745839560        4.3444877902        0.0854424927
 H         -4.8046442015        2.0882804457        0.1910747314
 H          0.1334983737        2.6265310978       -0.2236374037
 H         -5.2591295874       -0.6587297901        0.2618261769
 H         -5.0110025297       -3.1287469469        0.2789091896
 H         -1.9358780544       -6.2053247408        0.1799516694
 H         -1.0365232207       -4.8917643346        0.9778376241
 H         -1.1455603224       -4.9498595668       -0.8047329643
 H         -0.7538729577       -2.7763769069        0.0089132917
 H          0.9809929577        1.1121634041        1.4417797631
 H          3.3857953090        0.7404686250        1.2614271947
 H          4.9168869740       -1.6661958718       -1.2806257543
 H          2.7104935680       -1.9996893649       -1.9578332950
 H          0.2973849339       -1.5824234660       -1.7996437715
  44
        -76.31936518
 C         -0.0064279927        5.1793402858       -0.1092058730
 O         -1.3793861043        4.8879740001       -0.1805917865
 C         -1.7730484250        3.5824420364       -0.1468702875
 C         -3.1598439881        3.3794488102       -0.2205601044
 C         -3.7002452778        2.1151964805       -0.1764355351
 C         -0.9028499064        2.5058867658       -0.0455652037
 C         -1.4533810187        1.2317376884       -0.0298702280
 C         -2.8472329075        1.0226456190       -0.0752219930
 C         -3.0527332814       -0.3951918136        0.0199396523
 C         -4.1757566052       -1.2063645536        0.0100576763
 C         -4.0245742099       -2.5773791353        0.0988915168
 C         -2.7533124421       -3.1521238244        0.1811368128
 O         -2.5166564604       -4.4955113102        0.2544638920
 C         -3.6111558938       -5.3772944197        0.2350112189
 C         -1.6115874428       -2.3536983422        0.1913640631
 C         -1.7708988247       -0.9827517875        0.1284964323
 N         -0.8105490115        0.0126026838        0.0940684330
 C          0.5699430270       -0.1812652586        0.1669620235
 C          1.1182155523       -0.9949446452        1.1572972234
 C          2.4817964648       -1.1817480837        1.2230041045
 C          3.3432399646       -0.5598201427        0.3145971022
 C          4.7695552673       -0.7982684360        0.4493965132
 C          5.7632873080       -0.2897779293       -0.2650449108
 F          5.6897409268        0.5660526092       -1.2783243996
 F          7.0434058910       -0.5851944993       -0.0436335980
 C          2.7853103688        0.2539983575       -0.6743373710
 C          1.4204204273        0.4361352753       -0.7490733323
 H          0.0677574271        6.2646988817       -0.1559626274
 H          0.5427913153        4.7438283437       -0.9507124603
 H          0.4325955042        4.8279065946        0.8305744787
 H         -3.7877474807        4.2521284074       -0.3009338388
 H         -4.7691474132        1.9737044573       -0.2155322039
 H          0.1633743648        2.6411303120        0.0355042445
 H         -5.1616092171       -0.7746382230       -0.0702531300
 H         -4.9049972257       -3.1995963080        0.0937712820
 H         -3.1836275901       -6.3772092274        0.2943594038
 H         -4.1867867342       -5.2860033202       -0.6919281969
 H         -4.2740040867       -5.2177275193        1.0919059327
 H         -0.6443758012       -2.8272881144        0.2341200107
 H          0.4683789845       -1.4630407392        1.8805028504
 H          2.8940495456       -1.8121029441        1.9971875111
 H          5.0722836870       -1.4763494143        1.2344232959
 H          3.4163327470        0.7395897637       -1.4003788794
 H          0.9997918566        1.0436747889       -1.5359447615
  44
        -76.31893707
 C         -2.1764980742        6.0791667457       -0.2090270870
 O         -1.3170814800        4.9706028398       -0.1174311413
 C         -1.8608121786        3.7180364787       -0.0854673489
 C         -3.2316866973        3.4510496831       -0.1291962521
 C         -3.6982694932        2.1498480312       -0.1103584898
 C         -0.9360282078        2.6786888075       -0.0057393651
 C         -1.4096980029        1.3815970219        0.0393991678
 C         -2.7946904636        1.1032894433       -0.0299018911
 C         -2.9264595992       -0.3267734602       -0.0124825010
 C         -4.0080644141       -1.1916598734       -0.0335908296
 C         -3.7890994840       -2.5554816531        0.0218943978
 C         -2.4919342951       -3.0666505212        0.1159396982
 O         -2.1901837403       -4.3960511770        0.1939010209
 C         -3.2401844103       -5.3305333321        0.1840683648
 C         -1.3909679064       -2.2126549074        0.1393054023
 C         -1.6150930036       -0.8519051591        0.0571181276
 N         -0.7066999754        0.1912020497        0.0896313670
 C          0.6819677117        0.0635744048        0.1635009652
 C          1.4116013010        0.8094922624        1.0876806038
 C          2.7818588553        0.6797640662        1.1539110234
 C          3.4679724976       -0.1989233146        0.3108223831
 C          4.9118195302       -0.2864501613        0.4418647079
 C          5.7583973263       -1.0501713174       -0.2337038569
 F          5.4868622631       -1.9222119697       -1.1978496927
 F          7.0738624230       -1.0421663182       -0.0195941105
 C          2.7281221395       -0.9439275345       -0.6107151559
 C          1.3575328354       -0.8117897317       -0.6851762412
 H         -1.5272567447        6.9534228403       -0.2249743970
 H         -2.8462156354        6.1437843480        0.6549633274
 H         -2.7705202276        6.0548181116       -1.1285417470
 H         -3.9434663755        4.2586260174       -0.1884845108
 H         -4.7585633801        1.9547834690       -0.1619221328
 H          0.1151573504        2.9160888623        0.0041913296
 H         -5.0151595030       -0.8074008977       -0.0888566303
 H         -4.6375533044       -3.2203454768        0.0015045689
 H         -2.7643260429       -6.3073468534        0.2578470957
 H         -3.8171091003       -5.2803638892       -0.7453140863
 H         -3.9123261629       -5.1918534297        1.0373270077
 H         -0.4046611597       -2.6365931742        0.2334242699
 H          0.8945382735        1.4746864030        1.7619812206
 H          3.3351631601        1.2604347682        1.8774147370
 H          5.3669894756        0.3501528009        1.1870914182
 H          3.2227726097       -1.6254059377       -1.2828873218
 H          0.8003109399       -1.3757123408       -1.4172554599
