  32
        -53.33767556
 C          2.2418676367        2.8510631329        0.5101099927
 C          1.2287325701        2.4487868831       -0.2444327369
 C          0.5937780002        1.1372616568       -0.1492921651
 C         -0.7846324174        1.0375375119       -0.3067664628
 C         -1.4664778622       -0.1618895507       -0.1372900935
 C         -2.9394767860       -0.1568663221       -0.3469481792
 O         -3.6074716530       -1.0760766139       -0.7514812231
 O         -3.4694389769        1.0398628773       -0.0462793573
 C         -4.8710520594        1.1600835998       -0.2341603406
 C         -0.7618923291       -1.3252387746        0.2257733427
 C         -1.4342576665       -2.5979809486        0.4696913879
 C         -0.9832529544       -3.5364803827        1.2933136082
 C          0.6234869199       -1.2265897928        0.3508590107
 C          1.3009537977       -0.0358687058        0.1478798180
 C          2.7899815372       -0.0830263959        0.2017332592
 O          3.4287402707       -0.5912070782        1.0875922896
 O          3.3305262605        0.4447130012       -0.9039215903
 C          4.7483283287        0.4516102692       -0.9767577997
 H          2.6544333567        3.8414790832        0.4207099840
 H          2.6858113497        2.2136765340        1.2574480975
 H          0.7716255480        3.1339461560       -0.9468312180
 H         -1.3477464355        1.9234201669       -0.5590852249
 H         -5.1348991943        2.1658622655        0.0823838945
 H         -5.3996048705        0.4169780797        0.3666016447
 H         -5.1280181643        1.0069433808       -1.2845747122
 H         -2.3696042861       -2.7409170580       -0.0497420767
 H         -0.0779506529       -3.4209988661        1.8662105895
 H         -1.5231564112       -4.4561458889        1.4394001006
 H          1.1994810848       -2.1095888359        0.5815579621
 H          5.0037551340        0.5646982502       -2.0273646749
 H          5.1531993589       -0.4803420501       -0.5770298228
 H          5.1457007252        1.2893396121       -0.3993530584
