  17
        -22.49436511
 C         -2.8852396951        0.0640607062       -0.0002444591
 C         -1.3901137554        0.0055234766        0.0000565381
 C         -0.6075677482        1.1525485272        0.0001644912
 N          0.7138447022        1.1487305378        0.0001143931
 C          1.3533132146       -0.0112279141        0.0000207340
 C          2.8496116465        0.0376296444       -0.0002324315
 C          0.6668924184       -1.2247214128        0.0001197868
 C         -0.7139225608       -1.2121629053        0.0001087240
 H         -3.2316642114        1.0944540785        0.0005819698
 H         -3.2845199288       -0.4397509201        0.8794703684
 H         -3.2840107236       -0.4381115847       -0.8811377610
 H         -1.0656096747        2.1344323860        0.0002034874
 H          3.1782128101        1.0724594926        0.0001808417
 H          3.2448063774       -0.4645405547       -0.8819010761
 H          3.2452408035       -0.4654359929        0.8807243342
 H          1.2125769637       -2.1567857434        0.0002078648
 H         -1.2714006460       -2.1391357277        0.0001591074
