  56
        -64.42115023
 C          1.6476030145       -2.9464606773        1.4947245982
 C          1.5286734055       -1.9736216586        0.6010160440
 C          0.5862076518       -0.8606837346        0.6996040361
 C         -0.6605886551       -1.0573123103        1.2890391013
 C         -1.5988156548       -0.0475126477        1.4138703913
 C         -2.9447134591       -0.3525582143        2.0087237481
 C         -4.0551060937       -0.3157598599        0.9513686908
 C         -3.8415702592       -1.3691326564       -0.1323922241
 C         -4.9323205872       -1.3575060176       -1.2031562701
 C         -4.8812700099       -0.1246339167       -2.1033422296
 C         -5.9170847208       -0.2011411482       -3.2186030705
 C         -1.2834520972        1.2261146891        0.9206562266
 C         -2.2194254384        2.3439839423        1.0307411220
 C         -2.3605825805        3.3024919288        0.1250954935
 C         -0.0386531429        1.4223521304        0.3274591026
 C          0.8977655281        0.4114916031        0.1991477920
 C          2.2405139815        0.7172447922       -0.4007769587
 C          3.3178027467        0.7924195905        0.6873359731
 C          4.7051673341        1.1249902892        0.1393500255
 C          5.3118738988       -0.0019373511       -0.6940793182
 C          6.7459456859        0.3099060859       -1.1156638361
 C          7.3468186213       -0.8107632061       -1.9553845923
 H          2.3537164284       -3.7494251674        1.3664178165
 H          1.0607169293       -2.9700044254        2.3977987218
 H          2.1701481507       -1.9793221642       -0.2708027345
 H         -0.9116575411       -2.0466874665        1.6438850935
 H         -3.1790427924        0.3697428995        2.7952216275
 H         -2.9199874470       -1.3439790614        2.4664452372
 H         -4.0772771319        0.6761114756        0.4988579294
 H         -5.0180790269       -0.4881235823        1.4386746735
 H         -3.8177448214       -2.3562859045        0.3368267740
 H         -2.8706847053       -1.2055979135       -0.6057874717
 H         -5.9127133684       -1.4151493007       -0.7235728156
 H         -4.8189629348       -2.2474745750       -1.8275695817
 H         -3.8827187311       -0.0409124354       -2.5385934868
 H         -5.0605330765        0.7746471873       -1.5118368595
 H         -5.7441618482       -1.0760366436       -3.8419388496
 H         -5.8687412213        0.6839524877       -3.8488487537
 H         -6.9200799872       -0.2717272511       -2.8028308893
 H         -2.8297112290        2.3658928612        1.9249391093
 H         -1.8022391207        3.3046295701       -0.7962538695
 H         -3.0572012212        4.1125162221        0.2607766983
 H          0.2109292271        2.4117152589       -0.0290818148
 H          2.1960159555        1.6753385728       -0.9232649946
 H          2.5082412723       -0.0484130132       -1.1306337270
 H          3.3565487635       -0.1596873455        1.2213387543
 H          3.0247715124        1.5612980898        1.4067935654
 H          5.3701052403        1.3314117194        0.9819491043
 H          4.6495170860        2.0338380845       -0.4649530925
 H          4.7111125336       -0.1665457468       -1.5905849313
 H          5.3011674617       -0.9258264094       -0.1103211876
 H          7.3589510358        0.4637347500       -0.2244757134
 H          6.7585199234        1.2398248559       -1.6891264961
 H          7.3583457341       -1.7430024112       -1.3945535639
 H          8.3679816696       -0.5704721403       -2.2421952001
 H          6.7635867335       -0.9643540526       -2.8609798718
  56
        -64.42055273
 C          1.7626960624       -3.0780402791        1.1207822863
 C          1.9756051061       -2.1882674032        0.1603416857
 C          0.9678154073       -1.2689192934       -0.3643164307
 C         -0.3646500332       -1.6687186623       -0.4389318831
 C         -1.3657066532       -0.8523807425       -0.9350852140
 C         -2.7862236947       -1.3409918002       -0.9393860014
 C         -3.6109870296       -0.6545454641        0.1551319489
 C         -5.0658321007       -1.1160725229        0.1373328081
 C         -5.9070231866       -0.5030503728        1.2570965500
 C         -6.1404111447        0.9969854207        1.0893971540
 C         -7.0669026024        1.5436391704        2.1688733379
 C         -1.0277878630        0.4373245920       -1.3691312735
 C         -2.0340450715        1.3535173778       -1.9025220345
 C         -2.0115435189        2.6716353409       -1.7560707261
 C          0.3055755633        0.8345703211       -1.3013366169
 C          1.3088691345        0.0131091866       -0.8180912745
 C          2.7153756840        0.5337960776       -0.7342159004
 C          3.0860014834        0.8687649951        0.7152120477
 C          4.4907873498        1.4533862374        0.8578203599
 C          5.5992191155        0.4444716988        0.5648011732
 C          6.9842849656        1.0249690962        0.8409772364
 C          8.0909488674        0.0222400132        0.5380378482
 H          2.5414338427       -3.7386008605        1.4628639302
 H          0.8111215183       -3.1687815176        1.6175136626
 H          2.9623969303       -2.1143134300       -0.2782824318
 H         -0.6212295409       -2.6671692325       -0.1144256294
 H         -2.7994166146       -2.4206236178       -0.7743089583
 H         -3.2516666224       -1.1505115116       -1.9097178898
 H         -3.5599082297        0.4252198983        0.0089699012
 H         -3.1677896017       -0.8802878634        1.1280398293
 H         -5.0903486166       -2.2046389097        0.2358921270
 H         -5.5135673233       -0.8633868140       -0.8272067875
 H         -5.4186942502       -0.6871019514        2.2170202821
 H         -6.8776379480       -1.0054796755        1.2799022396
 H         -6.5791692061        1.1845559021        0.1064988916
 H         -5.1876574927        1.5268848169        1.1354087277
 H         -8.0355430252        1.0496471270        2.1281557273
 H         -7.2211096913        2.6122014293        2.0372784934
 H         -6.6407285980        1.3776982812        3.1560512518
 H         -2.8508188105        0.8983287227       -2.4478767261
 H         -1.2425546567        3.1723213485       -1.1916214871
 H         -2.7763747107        3.3010804070       -2.1786664438
 H          0.5679720792        1.8191863875       -1.6616123331
 H          2.8050065673        1.4370591518       -1.3417067208
 H          3.4134835635       -0.2051095227       -1.1307647621
 H          3.0033131285       -0.0333989136        1.3254265263
 H          2.3596229578        1.5910639357        1.0964839341
 H          4.6125057403        1.8167335049        1.8815298794
 H          4.5966806617        2.3120682763        0.1901497977
 H          5.5516580986        0.1330651950       -0.4804066825
 H          5.4504478156       -0.4428910669        1.1851887746
 H          7.0464710265        1.3278892875        1.8888627428
 H          7.1279601596        1.9193530601        0.2300689413
 H          7.9746104974       -0.8700746599        1.1495639310
 H          9.0674877776        0.4543256130        0.7441500957
 H          8.0614424990       -0.2746801952       -0.5082867710
  56
        -64.41938497
 C          2.5683395270       -2.5415656753       -0.8599959135
 C          2.3145516504       -1.3360849740       -1.3494032309
 C          1.3246346674       -0.4093038489       -0.7982561484
 C          0.1143450266       -0.9155639861       -0.3262262343
 C         -0.8867590070       -0.1123848023        0.1893454737
 C         -2.1828529866       -0.7343043999        0.6247287812
 C         -3.2935333788       -0.4706257334       -0.3978879212
 C         -4.6213133091       -1.0884898362        0.0314688800
 C         -5.7263015577       -0.8125634159       -0.9856681159
 C         -7.0484582027       -1.5027134294       -0.6484963407
 C         -7.7132584182       -0.9481323917        0.6061332524
 C         -0.6838091263        1.2750964121        0.2216222446
 C         -1.7023923773        2.1862623621        0.7402632502
 C         -1.9190802370        3.4145965628        0.2893428795
 C          0.5276638414        1.7792535028       -0.2415480239
 C          1.5362296333        0.9740280493       -0.7462247920
 C          2.8354652018        1.6246184370       -1.1329525267
 C          3.6794289246        1.9555304934        0.1074947745
 C          4.1432280330        0.7233315008        0.8850592444
 C          5.2808701679       -0.0245221959        0.1926119065
 C          5.6320841034       -1.3462550794        0.8750142671
 C          6.2077413729       -1.1699068361        2.2751837823
 H          3.2934438471       -3.1967815928       -1.3121748387
 H          2.0738314960       -2.9143310759        0.0220517868
 H          2.8554398487       -0.9956252705       -2.2231739551
 H         -0.0524612242       -1.9819612512       -0.3855218935
 H         -2.4887862508       -0.3394618752        1.5966444835
 H         -2.0486708275       -1.8127620489        0.7341185020
 H         -2.9912258029       -0.8837482856       -1.3633433541
 H         -3.4167035858        0.6072988951       -0.5250838883
 H         -4.9042940474       -0.6800911427        1.0033130971
 H         -4.4986706211       -2.1685005573        0.1462994291
 H         -5.3916206695       -1.1586403303       -1.9669848180
 H         -5.8901888090        0.2654350120       -1.0560418331
 H         -6.8737974907       -2.5738836475       -0.5230904025
 H         -7.7308315127       -1.3768529467       -1.4926876071
 H         -7.1086589206       -1.1431288273        1.4879275118
 H         -8.6858888083       -1.4121214134        0.7543701249
 H         -7.8566324439        0.1266460811        0.5165218066
 H         -2.3153509432        1.8058454937        1.5472137936
 H         -1.3624376783        3.8287286607       -0.5348138875
 H         -2.6782791651        4.0483857922        0.7155986491
 H          0.6970055281        2.8453615732       -0.1869748966
 H          2.6213163499        2.5592346225       -1.6582869880
 H          3.4108910869        0.9904134599       -1.8046513123
 H          3.0803864040        2.5844534328        0.7703402715
 H          4.5528078857        2.5348687437       -0.2021166790
 H          3.2970914621        0.0479639407        1.0268502949
 H          4.4789403474        1.0476249552        1.8717589197
 H          6.1672583059        0.6144371220        0.1619867920
 H          4.9938805410       -0.2430348510       -0.8370639489
 H          6.3644454012       -1.8723322013        0.2572632674
 H          4.7347951414       -1.9674543327        0.9242615202
 H          7.0738808271       -0.5116741062        2.2505837625
 H          6.5197459119       -2.1307311781        2.6788388456
 H          5.4696175639       -0.7439299915        2.9494729680
  56
        -64.41854809
 C          1.0317180077       -3.3899658701       -0.3310621903
 C          1.0849631060       -2.2527037485       -1.0114472289
 C          0.5140757069       -0.9842209211       -0.5619873013
 C         -0.6670842946       -0.9802644465        0.1761320828
 C         -1.2699289296        0.1826288670        0.6231755274
 C         -2.5758256168        0.1071218872        1.3623853484
 C         -3.7459353307        0.6231031237        0.5142828855
 C         -3.9578391365       -0.1638382717       -0.7791579415
 C         -4.3615684838       -1.6283910545       -0.5933290143
 C         -5.6467712295       -1.8528158623        0.2049858542
 C         -6.8751863985       -1.2259967037       -0.4437087735
 C         -0.6650221036        1.4102206869        0.3180102801
 C         -1.2312362679        2.6787468678        0.7733026559
 C         -1.1729076847        3.8192743645        0.0988369099
 C          0.5168462529        1.4064960363       -0.4192128620
 C          1.1166290626        0.2432934784       -0.8700327171
 C          2.4212123174        0.3196541670       -1.6114565658
 C          3.5945562105       -0.1902541433       -0.7643831376
 C          3.8154679039        0.6723163392        0.4753324158
 C          4.8610578340        0.0981445545        1.4319583039
 C          6.2711335511       -0.0255076436        0.8517298263
 C          6.8753194814        1.3142778799        0.4479877387
 H          1.4589447075       -4.3005720055       -0.7158012672
 H          0.5795271922       -3.4527479123        0.6448165355
 H          1.5836320434       -2.2351252612       -1.9722845535
 H         -1.1390668759       -1.9285254522        0.3899788339
 H         -2.5216483416        0.7024126184        2.2779792288
 H         -2.7669423248       -0.9258708440        1.6563830017
 H         -3.5513982283        1.6650157798        0.2486767295
 H         -4.6564265387        0.6013495871        1.1157121660
 H         -3.0307940831       -0.1374694747       -1.3576266067
 H         -4.7228686722        0.3442710335       -1.3695689330
 H         -3.5490168563       -2.1671047358       -0.1030267121
 H         -4.4861291588       -2.0704967935       -1.5853695076
 H         -5.5295637788       -1.4601860229        1.2165946056
 H         -5.8063709853       -2.9307087873        0.2934590995
 H         -6.8017043425       -0.1416396155       -0.4537499657
 H         -7.7734299763       -1.4990129482        0.1060957445
 H         -6.9823373224       -1.5735592598       -1.4691717439
 H         -1.7288700618        2.6589934529        1.7347125920
 H         -0.7207005191        3.8847846706       -0.8767686080
 H         -1.5952680999        4.7299255355        0.4888073844
 H          0.9954820640        2.3527862187       -0.6277180183
 H          2.6135387129        1.3566993288       -1.8957222335
 H          2.3643859081       -0.2699157542       -2.5302818492
 H          4.4942488495       -0.1902443346       -1.3824750316
 H          3.3953755372       -1.2186345799       -0.4550451393
 H          2.8691875154        0.7532230604        1.0162830901
 H          4.1040702253        1.6803975867        0.1722646668
 H          4.5302621135       -0.8925792190        1.7545068299
 H          4.9041702823        0.7350723853        2.3192895011
 H          6.2583964942       -0.6945457333       -0.0102550792
 H          6.9099482581       -0.4858142353        1.6098314414
 H          6.3315864569        1.7539294389       -0.3840152824
 H          7.9114287853        1.1845549854        0.1427892394
 H          6.8487489641        2.0105777261        1.2836436630
  56
        -64.41549975
 C          1.0411212034       -0.3121047436       -3.1359782289
 C          1.4154501441        0.5062821106       -2.1617831527
 C          0.5570788682        0.9325987444       -1.0576138686
 C         -0.8042904572        1.1197483924       -1.2719251164
 C         -1.6838000626        1.5059202407       -0.2708168994
 C         -3.1323444495        1.7221240306       -0.6232888207
 C         -3.7988892319        0.4783583883       -1.2233396284
 C         -3.8313355101       -0.6994101370       -0.2538001038
 C         -4.3852944735       -1.9599219075       -0.9139602079
 C         -4.3626582904       -3.1832439751        0.0032502150
 C         -5.3330402017       -3.0757876741        1.1739538129
 C         -1.1650766952        1.7483365316        1.0042754641
 C         -1.9640515746        2.1937174718        2.1563499427
 C         -3.0003779291        1.5539905532        2.6730713107
 C          0.2050515990        1.5992620172        1.2124653572
 C          1.0759974368        1.1880077149        0.2200748526
 C          2.5277351352        0.9788511482        0.5422812658
 C          2.8576261446       -0.5161543882        0.6238627254
 C          4.3231207665       -0.7945332232        0.9586510385
 C          5.2714701517       -0.4681855656       -0.1935373425
 C          6.7385558712       -0.7475495852        0.1366230414
 C          7.0539019220       -2.2319769815        0.2801212129
 H          1.7112178541       -0.5879244741       -3.9326620537
 H          0.0591872841       -0.7542350025       -3.1669762683
 H          2.4263342475        0.8929472236       -2.1584045566
 H         -1.1857184555        0.9808553218       -2.2728258618
 H         -3.1869063711        2.5286089716       -1.3619035137
 H         -3.6868826898        2.0425248290        0.2587013830
 H         -3.2655601414        0.1790474665       -2.1277423324
 H         -4.8204591949        0.7334620625       -1.5161306323
 H         -4.4534532358       -0.4348562358        0.6024814201
 H         -2.8177843396       -0.8951083434        0.1054964125
 H         -3.7887483962       -2.1801907167       -1.8031540176
 H         -5.4110183604       -1.7756427816       -1.2433805548
 H         -3.3488238640       -3.3274152073        0.3839978505
 H         -4.6220431246       -4.0654597442       -0.5872786183
 H         -5.0499269473       -2.2690935614        1.8449266208
 H         -5.3396078752       -4.0017517862        1.7447954166
 H         -6.3428131416       -2.8877375505        0.8149277427
 H         -1.6029960164        3.0996064291        2.6309339713
 H         -3.3583195590        0.6270296502        2.2596927333
 H         -3.5191067951        1.9237392796        3.5420129951
 H          0.5963231544        1.8013049685        2.2009586412
 H          2.7581908947        1.4465090073        1.5020905533
 H          3.1513787719        1.4534945464       -0.2171589372
 H          2.6051507203       -0.9931360493       -0.3258532907
 H          2.2244325824       -0.9629067670        1.3947521125
 H          4.4196340291       -1.8519728062        1.2106406228
 H          4.6110189710       -0.2154065284        1.8396859875
 H          5.1761787731        0.5888743893       -0.4501051934
 H          4.9828512133       -1.0507979534       -1.0719269529
 H          7.0041190097       -0.2290426987        1.0609307527
 H          7.3590089395       -0.3341635742       -0.6625052289
 H          6.5305010199       -2.6642782116        1.1288343703
 H          8.1211008092       -2.3774112478        0.4324498006
 H          6.7593732969       -2.7715212957       -0.6176093856
  56
        -64.41525568
 C          2.1954274996       -2.9676024056        1.8914412038
 C          1.3084702297       -2.5829823224        0.9890360584
 C          0.5980135840       -1.2931947929        1.0012317644
 C         -0.7887716313       -1.3199608971        1.1083022200
 C         -1.5577000284       -0.1691621993        1.1536438157
 C         -3.0534087497       -0.2812376051        1.2329697340
 C         -3.7039344007        0.0353408376       -0.1184709163
 C         -5.2247011121       -0.0730719066       -0.0490733499
 C         -5.9231923275        0.3648802473       -1.3372706021
 C         -5.5919670485       -0.4781399138       -2.5698740099
 C         -6.0086284199       -1.9376812602       -2.4309399663
 C         -0.9121075104        1.0711331978        1.0557299963
 C         -1.6599825285        2.3270917712        1.0920125271
 C         -1.3292186390        3.4256506052        0.4267696744
 C          0.4743722471        1.0925951258        0.9288703941
 C          1.2449781180       -0.0582331988        0.9050884610
 C          2.7262608200        0.0542619566        0.6772347995
 C          3.0377141591       -0.1120610687       -0.8150187908
 C          4.5349239344       -0.0989459176       -1.1203336781
 C          5.1916356150        1.2533945664       -0.8472738487
 C          6.6206514279        1.3447985237       -1.3836316546
 C          7.5894206274        0.4118538599       -0.6663629279
 H          2.6642378226       -3.9366688764        1.8516832184
 H          2.4771152745       -2.3347191434        2.7172833579
 H          1.0142402754       -3.2628245104        0.1971768389
 H         -1.2800748480       -2.2818083512        1.1743766252
 H         -3.4476315763        0.4004112620        1.9906817400
 H         -3.3255493141       -1.2965642968        1.5301844225
 H         -3.3112518522       -0.6597419914       -0.8625360642
 H         -3.4231731091        1.0455383420       -0.4251631277
 H         -5.5846108865        0.5631807435        0.7642939876
 H         -5.5069411360       -1.0988182854        0.1944915316
 H         -5.6532058484        1.4035503742       -1.5450078172
 H         -7.0035078712        0.3320450101       -1.1729449188
 H         -4.5223816220       -0.4223239152       -2.7784297496
 H         -6.1128144823       -0.0430391601       -3.4266441230
 H         -5.4262968760       -2.4394792268       -1.6626734205
 H         -5.8531615089       -2.4651253713       -3.3695815522
 H         -7.0620351694       -2.0096196247       -2.1679631167
 H         -2.5483506160        2.3338410485        1.7104597244
 H         -0.4766217476        3.4626664735       -0.2306968213
 H         -1.9123647058        4.3281718897        0.4987588375
 H          0.9717128090        2.0500615936        0.8665924342
 H          3.2641588486       -0.7121399666        1.2336775189
 H          3.0687756256        1.0324130731        1.0167168073
 H          2.5406427080        0.6826472798       -1.3767910602
 H          2.6182618671       -1.0644996080       -1.1489036768
 H          4.6755288479       -0.3492505695       -2.1751767922
 H          5.0219868262       -0.8743373656       -0.5264913401
 H          5.2062215314        1.4476496218        0.2266887105
 H          4.5916029873        2.0354312299       -1.3199399150
 H          6.9709716603        2.3735161362       -1.2675411525
 H          6.6208052764        1.1155703200       -2.4519431229
 H          7.5732547489        0.5981231084        0.4054881427
 H          8.6035998517        0.5709644768       -1.0261748574
 H          7.3285178752       -0.6288225559       -0.8394624689
  56
        -64.41485976
 C          0.7045643066       -3.3890611985        2.6037069162
 C          1.3788856606       -2.3198308766        2.2015912833
 C          0.8284215067       -1.2511697273        1.3683232520
 C         -0.1587909246       -1.5402977338        0.4312907600
 C         -0.7200539403       -0.5825169061       -0.4004184563
 C         -1.8264753331       -0.9987231922       -1.3309817115
 C         -3.0616698556       -1.4833723202       -0.5596586204
 C         -3.6351513045       -0.4336331289        0.3923598165
 C         -4.1275410158        0.8499258586       -0.2793366563
 C         -5.2143343009        0.6532594345       -1.3372218572
 C         -6.4912036965        0.0337783365       -0.7812322327
 C         -0.2741032928        0.7368961539       -0.2828266520
 C         -0.7267257563        1.8441886526       -1.1344561568
 C         -0.7127612550        1.8373073558       -2.4589266235
 C          0.6839476448        1.0372822102        0.6830125138
 C          1.2677972429        0.0757927273        1.4891384917
 C          2.3454840941        0.4862346465        2.4532630143
 C          3.7667102943        0.2690411543        1.9054730230
 C          4.0403636341        1.0105292418        0.5926053816
 C          3.7093140618        0.1697875916       -0.6420311997
 C          3.6221949093        0.9947201563       -1.9255375880
 C          4.9427042818        1.6517193007       -2.3101266154
 H          1.1625739738       -4.1481432247        3.2150336471
 H         -0.3323381913       -3.5431713941        2.3557242930
 H          2.4078481908       -2.2042263896        2.5122142460
 H         -0.4813150531       -2.5658868510        0.3261087399
 H         -1.4731008886       -1.8155536458       -1.9669686852
 H         -2.1128973489       -0.1713548532       -1.9766088816
 H         -2.7960209648       -2.3640041682        0.0295513097
 H         -3.8248312417       -1.7912252387       -1.2766222387
 H         -2.8622954074       -0.1622231840        1.1163095537
 H         -4.4578821893       -0.8854709513        0.9504408719
 H         -3.2800751704        1.3600487905       -0.7407273586
 H         -4.5169870303        1.5092670635        0.5011038096
 H         -4.8328468656        0.0331024246       -2.1501766473
 H         -5.4530849809        1.6315894655       -1.7625253297
 H         -6.3169129224       -0.9844570287       -0.4432900026
 H         -7.2636966233        0.0081677703       -1.5468997851
 H         -6.8616114921        0.6168027468        0.0594747851
 H         -1.0157100386        2.7448371873       -0.6041640369
 H         -0.3774759983        0.9805700613       -3.0198533506
 H         -1.0186070383        2.6954800629       -3.0339949630
 H          1.0011007413        2.0667821490        0.7819179902
 H          2.2402617511       -0.0651375032        3.3901944125
 H          2.2276419316        1.5483871902        2.6811436231
 H          3.9509639415       -0.7958308791        1.7524162761
 H          4.4661604439        0.6158121887        2.6704124420
 H          5.0952498832        1.2894599357        0.5575520058
 H          3.4573392582        1.9329215418        0.5693343134
 H          2.7508930545       -0.3289155448       -0.4928609808
 H          4.4704061825       -0.6056641666       -0.7616291436
 H          2.8529733817        1.7613483693       -1.8047810771
 H          3.3028542617        0.3376989391       -2.7382321533
 H          5.2442169499        2.3847946430       -1.5665074991
 H          4.8483719004        2.1592817784       -3.2676942088
 H          5.7283098517        0.9036742214       -2.3951450612
  56
        -64.41384925
 C          0.4699400778       -2.1620652148       -2.6789607649
 C          0.2884505898       -0.8537151249       -2.6199952731
 C         -0.0436088008       -0.1102831359       -1.3918727231
 C         -1.2789468303        0.5212411796       -1.3302053364
 C         -1.7100108467        1.2253488002       -0.2142146247
 C         -3.1282030859        1.7273376263       -0.1881406141
 C         -4.1091763768        0.5470371965       -0.2032697986
 C         -3.9434853912       -0.3288671363        1.0361886868
 C         -4.7511542796       -1.6256492286        0.9803346369
 C         -4.3378204671       -2.5893224180       -0.1351773538
 C         -2.8655203608       -2.9824336995       -0.0844440076
 C         -0.8371316815        1.3392677231        0.8716122398
 C         -1.1376184992        2.1072171394        2.0869644671
 C         -1.5342087098        3.3703103596        2.1087709461
 C          0.4000718872        0.7014588173        0.8091737391
 C          0.8154411730       -0.0276213781       -0.2921137955
 C          2.1974368076       -0.6161830227       -0.3119418219
 C          3.1616790350        0.3413594268       -1.0213170962
 C          4.5691946193       -0.2319388879       -1.1863262993
 C          5.2902119395       -0.5644952285        0.1209680090
 C          5.5068108460        0.6471329383        1.0247721508
 C          6.3472203553        0.2914795463        2.2454149648
 H          0.6812505262       -2.6668313412       -3.6068215081
 H          0.3996845928       -2.7847123075       -1.8016659909
 H          0.3224976495       -0.2591537792       -3.5260058767
 H         -1.9372792889        0.4422579736       -2.1850288458
 H         -3.3117832523        2.3564195783       -1.0630970080
 H         -3.3066812793        2.3224584340        0.7062926559
 H         -3.9328730228       -0.0491258034       -1.0983839700
 H         -5.1327294861        0.9263567523       -0.2502148274
 H         -4.2562475243        0.2406584408        1.9154677598
 H         -2.8876304809       -0.5692985003        1.1661531923
 H         -5.8101254587       -1.3837292569        0.8567415355
 H         -4.6408321624       -2.1385195092        1.9393713849
 H         -4.5592307756       -2.1485995882       -1.1087751373
 H         -4.9496008906       -3.4907139587       -0.0443556529
 H         -2.2238962402       -2.1354714196       -0.3152407202
 H         -2.6623270699       -3.7657911585       -0.8117355119
 H         -2.6048017727       -3.3558630994        0.9037799825
 H         -0.9485696530        1.5868832732        3.0188004614
 H         -1.6839146452        3.9354153196        1.2034645176
 H         -1.7059339644        3.8954105454        3.0335850530
 H          1.0660627690        0.7904929018        1.6573538032
 H          2.2033150300       -1.5717537825       -0.8355884698
 H          2.5304662552       -0.7812394817        0.7133022626
 H          3.2016336578        1.2847256381       -0.4739569833
 H          2.7616155814        0.5586185035       -2.0150562254
 H          5.1711775810        0.4901896605       -1.7441554282
 H          4.5061638077       -1.1421927597       -1.7884941661
 H          6.2649757437       -0.9922053674       -0.1286220021
 H          4.7336457344       -1.3286335929        0.6666273424
 H          4.5438883596        1.0370829446        1.3584224656
 H          6.0066562557        1.4353414831        0.4567812795
 H          5.8608153267       -0.4872983971        2.8293943504
 H          6.4861472840        1.1617232492        2.8829796495
 H          7.3271810204       -0.0718837520        1.9429594263
  56
        -64.41382840
 C          0.6001398787       -3.4502996005       -0.0786593989
 C          0.5185468102       -2.5524037982        0.8885651876
 C          0.0359307355       -1.1718941418        0.7119775132
 C         -1.1224197201       -0.8012867633        1.3830837322
 C         -1.6901799900        0.4597857380        1.2684030470
 C         -3.0141335108        0.7237866200        1.9332322507
 C         -4.1307497762       -0.2325269137        1.4881095362
 C         -4.7054517371        0.0741448403        0.1036514273
 C         -3.7533071965       -0.1416463876       -1.0732252874
 C         -3.3173321079       -1.5922307852       -1.2606181316
 C         -2.3639436714       -1.7343377356       -2.4403632599
 C         -1.0179297394        1.4153715517        0.4981457669
 C         -1.4547706450        2.8095962124        0.3531833464
 C         -1.7589673552        3.6224039169        1.3536682374
 C          0.1412641459        1.0399913811       -0.1778212063
 C          0.6788377348       -0.2335500089       -0.1002043728
 C          1.9757756197       -0.5331256630       -0.7968464686
 C          3.1414882994       -0.4031014417        0.1899595067
 C          4.4916706764       -0.7803314636       -0.4187465662
 C          4.9351556608        0.0865514518       -1.5996177374
 C          5.0442881532        1.5819064341       -1.2977653041
 C          6.0768713671        1.9039535475       -0.2241254016
 H          0.9306133927       -4.4587469325        0.1066484971
 H          0.3253691295       -3.2164604242       -1.0942355648
 H          0.7594342835       -2.8306150698        1.9086296756
 H         -1.6058275595       -1.5380885015        2.0108282729
 H         -3.3371842301        1.7453030930        1.7339798327
 H         -2.8852845175        0.6165921494        3.0148078045
 H         -4.9485591818       -0.1473651818        2.2091534787
 H         -3.7795961242       -1.2635593470        1.5197420466
 H         -5.0395348620        1.1152614158        0.0901211263
 H         -5.5884960239       -0.5544776538       -0.0435716733
 H         -2.8683550156        0.4809636232       -0.9477486239
 H         -4.2607602721        0.1892901706       -1.9838626725
 H         -4.1977119372       -2.2197837436       -1.4203783884
 H         -2.8094518889       -1.9452843736       -0.3625561068
 H         -2.8314344482       -1.3843261130       -3.3585962655
 H         -2.0761972242       -2.7745039138       -2.5771684266
 H         -1.4645694235       -1.1467184267       -2.2659993260
 H         -1.4555907509        3.1877311022       -0.6628832273
 H         -1.7187849175        3.3017128568        2.3814716606
 H         -2.0379507893        4.6490625880        1.1843081457
 H          0.6463289135        1.7836557157       -0.7804014764
 H          2.1104963648        0.1696680942       -1.6200328668
 H          1.9722289678       -1.5438508872       -1.2040775898
 H          2.9498129563       -1.0664517247        1.0374023516
 H          3.1734952188        0.6168861817        0.5770019907
 H          4.4423365198       -1.8180947156       -0.7594617867
 H          5.2505312716       -0.7333799739        0.3647903285
 H          4.2391775705       -0.0530280590       -2.4293791452
 H          5.9118039963       -0.2730978339       -1.9344800078
 H          4.0713107022        1.9709659224       -0.9934798431
 H          5.3243508677        2.0947602403       -2.2216765871
 H          5.7784840817        1.4985614399        0.7391842410
 H          6.1875169296        2.9809723815       -0.1176065121
 H          7.0452907853        1.4849078377       -0.4897787038
  56
        -64.41238170
 C          0.2362099165       -1.4707748068       -3.6993658322
 C          0.7293379661       -0.3148706528       -3.2782436265
 C          0.4484747835        0.2790261928       -1.9686555214
 C         -0.8309317903        0.1812055169       -1.4342449975
 C         -1.1877479622        0.7609345679       -0.2257875398
 C         -2.5715335454        0.5170257096        0.3077925451
 C         -2.6659515789       -0.8989067011        0.8891366474
 C         -4.0133220767       -1.1874078474        1.5508072986
 C         -5.2249766071       -1.0917242851        0.6204947237
 C         -5.1744448649       -2.0077281017       -0.6031938214
 C         -5.1237954256       -3.4879374847       -0.2439265364
 C         -0.2146638743        1.4780786592        0.4723964837
 C         -0.4673379129        2.1746449545        1.7431404531
 C         -1.3816620825        3.1137624112        1.9252990090
 C          1.0764448670        1.5532549881       -0.0474808057
 C          1.4361257863        0.9676153685       -1.2482183987
 C          2.8424080222        1.0525145844       -1.7889476623
 C          3.9453699413        1.2230361999       -0.7433857172
 C          4.0105095311        0.0432333810        0.2236601011
 C          5.0839804752        0.2457000869        1.2903586482
 C          5.2146265189       -0.9383879512        2.2487865838
 C          4.0048684191       -1.1051609946        3.1611194320
 H          0.4551887537       -1.8586304826       -4.6798612182
 H         -0.3914584239       -2.0840211944       -3.0741286131
 H          1.3784693432        0.2569569169       -3.9293300830
 H         -1.5853931512       -0.3478550133       -1.9993150117
 H         -3.2926365842        0.6285165906       -0.5037234937
 H         -2.8176056260        1.2323035581        1.0909479092
 H         -1.8811619646       -1.0151110013        1.6416373625
 H         -2.4696662955       -1.6296182887        0.1031605411
 H         -4.1591940908       -0.4780662163        2.3699452800
 H         -3.9770451850       -2.1858932246        1.9910719639
 H         -5.3359739477       -0.0600237841        0.2803365556
 H         -6.1175821696       -1.3369385174        1.2022868818
 H         -4.3114756625       -1.7540273550       -1.2208704989
 H         -6.0684804833       -1.8206919850       -1.2038285147
 H         -4.1953920857       -3.7355105689        0.2641722662
 H         -5.1903045669       -4.0972645894       -1.1428003819
 H         -5.9541798537       -3.7493622471        0.4088017578
 H          0.2044879822        1.9128817109        2.5528689838
 H         -2.0351402284        3.4328467825        1.1297307746
 H         -1.5018344635        3.6142977207        2.8716738672
 H          1.8077006999        2.1110158950        0.5180381777
 H          2.8907329323        1.8934880892       -2.4903777806
 H          3.0529569689        0.1419610980       -2.3546353776
 H          3.8019564568        2.1505454238       -0.1861607367
 H          4.9014290956        1.3103928381       -1.2664077515
 H          4.2258487636       -0.8693544053       -0.3377803994
 H          3.0362443427       -0.0825010943        0.6968149899
 H          4.8573173136        1.1473909205        1.8649844178
 H          6.0456571144        0.4054250687        0.7953753936
 H          6.1035103426       -0.7904754267        2.8671653821
 H          5.3630921919       -1.8539309166        1.6716438038
 H          3.8245410601       -0.1910764561        3.7231812267
 H          4.1741224218       -1.9138774642        3.8686929772
 H          3.1117065908       -1.3390101778        2.5876482214
