26
 energy: -41.236170561014 gnorm: 0.000037824214 xtb: 6.5.0 (unknown)
C           -4.52827934880000       -0.43659358020000       -0.55717084490000
C           -3.64655107920000        0.33193510290000        0.06872980250000
C           -2.20434989770000        0.10024913840000        0.09583274530000
C           -1.69746274220000       -1.19673812130000        0.05193311080000
C           -0.34236478240000       -1.47145739640000        0.08488384860000
C            0.12818362420000       -2.89447752920000        0.02615228750000
C            0.55848190020000       -0.39730111170000        0.16223157300000
C            1.99050871300000       -0.65633932470000        0.21267057200000
C            2.97551617760000        0.18285079550000       -0.06785593240000
F            2.89181624750000        1.44314501150000       -0.48156222950000
F            4.26436662510000       -0.15454025520000        0.01677683020000
C            0.05300655230000        0.90190432530000        0.21121408320000
C           -1.30328562160000        1.17129276550000        0.18227168060000
C           -1.78128786110000        2.59167963750000        0.22414753670000
H           -5.58222890270000       -0.21744363880000       -0.53730057550000
H           -4.23406775250000       -1.30023734150000       -1.12978270790000
H           -3.99295144340000        1.20982029260000        0.59764045710000
H           -2.39432858600000       -2.02102905470000        0.00953879440000
H           -0.71765561810000       -3.56652088970000       -0.09408320230000
H            0.64982582000000       -3.16877602830000        0.94309396390000
H            0.80794296310000       -3.04494311790000       -0.81118510690000
H            2.30911971830000       -1.64592025200000        0.50215862800000
H            0.73839133480000        1.73124053970000        0.28734227520000
H           -0.93902888020000        3.27756540230000        0.18467152320000
H           -2.33538525790000        2.78385957300000        1.14318898140000
H           -2.44003876530000        2.80137442300000       -0.61701343030000
