22
 energy: -42.557157359123 gnorm: 0.000126544192 xtb: 6.4.1 (23d549d)
C         3.79477357520000   -1.83673552490000    0.43566292780000
C         3.52420922150000   -0.57805176220000    0.11092993340000
C         2.20056003010000    0.01151067510000   -0.03371745580000
C         1.00820058320000   -0.70201044730000    0.10966003410000
C        -0.20169310150000   -0.04126768920000   -0.03704113940000
C        -1.46572374120000   -0.85636140330000    0.06549977770000
F        -1.24044299880000   -2.16255450980000   -0.15629044130000
F        -2.02942979180000   -0.79080534950000    1.28795667240000
F        -2.41061838100000   -0.49422786430000   -0.81353977320000
C        -0.21746666030000    1.33173331370000   -0.31167275080000
C        -1.40881417720000    2.16859033510000   -0.43939693230000
C        -2.44072405260000    2.17504897100000    0.39169293080000
C         1.04085755450000    1.92908384500000   -0.47575656720000
N         2.18708917980000    1.31050036490000   -0.33941308100000
H         4.81035475290000   -2.18221030460000    0.52198526820000
H         3.03049904430000   -2.57036388850000    0.62885923200000
H         4.32408770430000    0.12628203430000   -0.07134681130000
H         1.02221949590000   -1.76003629230000    0.31332500590000
H        -1.36777766420000    2.87918646180000   -1.25543039350000
H        -2.50346614560000    1.52654411160000    1.24825919900000
H        -3.26405822510000    2.85310439320000    0.24913112800000
H         1.10362740420000    2.98180884040000   -0.72014830230000
