  43
        -70.92387123
 C         -4.1277204704        2.4390001918       -0.8923555844
 C         -4.0221708554        1.5585920606        0.3522837615
 C         -5.2852020818        0.7134196821        0.5216730063
 O         -2.9724268317        0.5750957065        0.1856429274
 C         -1.7043821567        0.9557122365       -0.0034856311
 N         -0.9039919247       -0.1542464907       -0.1735668544
 C          0.4992079747       -0.0636668269       -0.1776328089
 C          1.1783781185        0.8712786542        0.5995354990
 C          2.5567281739        0.9255438939        0.5842999760
 C          3.3026963343        0.0438342886       -0.2003426392
 C          4.7539296077        0.0445362480       -0.2581019901
 C          5.6074732336        0.8056526597        0.4114786812
 F          5.3388316865        1.7521042725        1.3033582038
 F          6.9302117681        0.7099747444        0.2719633961
 C          2.6115824012       -0.8918978358       -0.9745498839
 C          1.2354646843       -0.9470681278       -0.9668818500
 C         -1.4877731676       -1.4377011548       -0.3467558200
 C         -2.3982105123       -1.6715207449       -1.3698986997
 C         -2.9558157986       -2.9278206191       -1.5206437128
 C         -2.6007752293       -3.9571045627       -0.6647183031
 C         -1.6833525610       -3.7268423262        0.3467507244
 C         -1.1275638594       -2.4711343599        0.5096530126
 O         -1.2948247597        2.0892110339       -0.0220954184
 C         -3.7672108298        2.4007846851        1.6016019833
 H         -4.2824282559        1.8227442196       -1.7757595031
 H         -3.2182425504        3.0192925365       -1.0217223070
 H         -4.9680447039        3.1193575118       -0.7875943127
 H         -5.4341417603        0.0867867053       -0.3537360212
 H         -6.1495257304        1.3577246468        0.6508271802
 H         -5.1869824780        0.0685993538        1.3908457834
 H          0.6249087440        1.5635911869        1.2114524274
 H          3.0514843527        1.6605745026        1.1971995511
 H          5.2091193611       -0.6676508826       -0.9315451973
 H          3.1650001718       -1.5819374223       -1.5945428494
 H          0.7212245905       -1.6749448971       -1.5766044900
 H         -2.6640853372       -0.8689232589       -2.0408597197
 H         -3.6649111929       -3.1060428101       -2.3154356681
 H         -3.0366445978       -4.9371388332       -0.7871842473
 H         -1.4024750194       -4.5264645676        1.0158323221
 H         -0.4119139098       -2.2831764148        1.2965007079
 H         -4.6119773141        3.0612345244        1.7754953425
 H         -2.8702316663        3.0005468978        1.4748394204
 H         -3.6404676040        1.7541045854        2.4674170172
