  32
        -39.10334932
 C          3.5925877976       -2.0115131300        0.1258898453
 C          2.2801757916       -2.0578452535       -0.0653081884
 C          1.3534041687       -0.9306754065       -0.0342095281
 C          1.7810740362        0.3927766871       -0.0028426087
 C          0.8615858325        1.4336962097        0.0316481926
 C          1.2618658403        2.8371531385        0.0575967450
 C          2.4825584686        3.3182793355       -0.1420838528
 C         -0.5026395963        1.1320599173        0.0449439148
 C         -0.9621181574       -0.1753191086        0.0053622873
 C         -2.4413512130       -0.5323913241        0.0055544135
 C         -3.3475336423        0.6998814871        0.0722586653
 C         -2.7690220828       -1.2972261616       -1.2845185314
 C         -2.7449780899       -1.4133967455        1.2254375918
 C         -0.0156268613       -1.1924049447       -0.0395303479
 H          4.1960431569       -2.9024375164        0.0890787533
 H          4.1196905653       -1.0960709869        0.3333371066
 H          1.8138669245       -3.0182399723       -0.2518862101
 H          2.8358887350        0.6122471512       -0.0055749668
 H          0.4522202209        3.5320785465        0.2478301388
 H          3.3302120558        2.6891932927       -0.3534724324
 H          2.6805049569        4.3760124595       -0.1071217067
 H         -1.1978287969        1.9557797873        0.0777698168
 H         -3.1952926143        1.3457225088       -0.7894672238
 H         -3.1685379085        1.2685366055        0.9819399511
 H         -4.3889179098        0.3838870132        0.0739390112
 H         -2.5352826950       -0.6856596088       -2.1536766560
 H         -3.8273325476       -1.5483523044       -1.3132645949
 H         -2.1988234839       -2.2193554260       -1.3546019227
 H         -2.4912698480       -0.8857362244        2.1426470707
 H         -2.1778782787       -2.3395972459        1.1982837218
 H         -3.8035020824       -1.6638708812        1.2525748734
 H         -0.3345406034       -2.2241493323       -0.0707013986
