  28
        -41.86546125
 C          2.9592174952       -0.6936058309        2.6025257976
 C          3.5351559009       -0.1024614588        1.5635089221
 C          2.8024257562        0.2807909671        0.3609080122
 C          3.4499184881        0.9364418438       -0.6912636647
 C          2.7135157923        1.2928484044       -1.8064042145
 C          1.3659093769        0.9793915540       -1.8510504242
 C          0.8035394906        0.3122229848       -0.7597362121
 C         -0.6266124458       -0.0553690665       -0.7446665892
 C         -1.2770825407       -0.4735015238       -1.9073814727
 C         -2.6189409923       -0.8051308103       -1.8259948929
 C         -3.2660290368       -0.7117604480       -0.6077215446
 C         -2.5359108709       -0.2932429494        0.5090948482
 C         -3.0998504905       -0.1630029665        1.8492854145
 C         -4.3500057794       -0.4224086965        2.2100632660
 N         -1.2472903424        0.0231666344        0.4218643099
 N          1.5085066694       -0.0171163371        0.3097181963
 H          3.5121855871       -0.9685566469        3.4844262630
 H          1.9052916734       -0.9112798863        2.5807144469
 H          4.5923461296        0.1302529866        1.5630880205
 H          4.5035978795        1.1634944849       -0.6265754090
 H          3.1822720206        1.8111835156       -2.6314229663
 H          0.7597378491        1.2627684049       -2.6976072739
 H         -0.7419665903       -0.5574639595       -2.8406355775
 H         -3.1537516917       -1.1358752003       -2.7055877491
 H         -4.3113595444       -0.9618182512       -0.5237628874
 H         -2.3787146846        0.1804235359        2.5782224626
 H         -5.0999234665       -0.7675901924        1.5181663514
 H         -4.6748527782       -0.2974110731        3.2288674863
