  20
        -32.68134173
 C          3.2379898861        1.2265846914        0.0809149926
 C          2.0071855932        0.3778481232        0.0274366372
 C          2.0993765868       -1.0118054711       -0.0145023645
 C          0.9662077833       -1.7987237769       -0.0528934261
 C         -0.3152836387       -1.2530407353       -0.0416572556
 C         -1.5007998047       -2.1568752929       -0.0922572422
 C         -0.3995776973        0.1436885645        0.0015944705
 N         -1.6593318228        0.8383759236        0.0133163200
 O         -2.6641521728        0.2249964435        0.3089621754
 O         -1.6476383062        2.0198311524       -0.2717216984
 C          0.7446319416        0.9390557151        0.0302865659
 H          3.9575119455        0.9034313804       -0.6688791246
 H          3.7118309001        1.1358227537        1.0581876759
 H          2.9965534802        2.2721458924       -0.0885927133
 H          3.0735523869       -1.4785414510       -0.0197324193
 H          1.0701169793       -2.8729625342       -0.0929539261
 H         -1.1874473210       -3.1780031874       -0.2954205511
 H         -2.2073445742       -1.8402542903       -0.8572089739
 H         -2.0356082927       -2.1325761478        0.8562306669
 H          0.6176782195        2.0111672151        0.0600117240
