  20
        -34.89682146
 C          3.3471037520        2.6053105535        0.0106591327
 C          3.3743403114        1.2790573541       -0.0347759641
 C          2.2267428011        0.3782774101       -0.0168843294
 C          2.4512671533       -0.9998042674        0.0102867349
 C          1.3918565705       -1.8871459770        0.0309110676
 C          0.0879721202       -1.4281857431        0.0226535437
 C         -0.1665527789       -0.0553167098       -0.0075838797
 C         -1.5080493816        0.5093140078       -0.0204352837
 C         -2.6713765765       -0.1233713573       -0.0002734925
 F         -2.8949815847       -1.4315367650        0.0363032379
 F         -3.8433183799        0.5112863738       -0.0146715673
 C          0.9099793203        0.8292887367       -0.0273133501
 H          4.2552658353        3.1829366760       -0.0056114110
 H          2.4333279714        3.1713586262        0.0684978195
 H          4.3334293742        0.7778135724       -0.0845222891
 H          3.4653704403       -1.3728864669        0.0170954375
 H          1.5820800700       -2.9500070927        0.0530213603
 H         -0.7231912513       -2.1367639670        0.0382582144
 H         -1.5766202931        1.5874792910       -0.0494171637
 H          0.7095941593        1.8893056697       -0.0547214796
