28
 energy: -40.893706822378 gnorm: 0.000038767294 xtb: 6.4.1 (23d549d)
C         3.22211606690000   -1.51270336230000    0.84706042500000
C         2.22550938580000   -1.63297131960000   -0.01987274340000
C         1.07136979800000   -0.73537349110000   -0.07733966710000
C        -0.18734157250000   -1.32712065650000   -0.22142611450000
C        -1.35999089440000   -0.59999888730000   -0.13976249830000
O        -2.60752605040000   -1.14472534950000   -0.25722597480000
C        -2.72277199120000   -2.52535895480000   -0.48890174410000
C        -1.29814888160000    0.79115997740000    0.09613781210000
C        -2.53481802930000    1.55210615440000    0.20897284960000
C        -2.65119304640000    2.79483718870000    0.66211418720000
C        -0.04522227050000    1.38139449680000    0.17067065490000
C         1.13592864300000    0.65461456150000    0.07134443240000
O         2.29102832540000    1.39817661850000    0.11570056190000
C         3.32136696600000    1.09490035240000   -0.79871061230000
H         4.02820246600000   -2.22597179140000    0.88692213840000
H         3.25394976860000   -0.70735570160000    1.56218743620000
H         2.18900466550000   -2.48685804050000   -0.68645538220000
H        -0.21549495640000   -2.39688881710000   -0.36303492450000
H        -3.79173500710000   -2.72302811260000   -0.55682194880000
H        -2.30069206810000   -3.11001323500000    0.33524542020000
H        -2.24187290800000   -2.81964169730000   -1.42779343580000
H        -3.41920370390000    1.01058867830000   -0.09657733450000
H        -1.80904280960000    3.37039682150000    1.00642568620000
H        -3.60950858440000    3.28251333050000    0.71383770200000
H         0.04235147670000    2.44851952270000    0.29518907610000
H         3.76848669750000    2.04843857890000   -1.08524536640000
H         2.93349041340000    0.59469088170000   -1.68935087450000
H         4.08919796450000    0.46012868410000   -0.34559996940000
