15
 energy: -24.923611940605 gnorm: 0.000032637182 xtb: 6.4.1 (23d549d)
C        -3.18665960230000    1.02870385990000    0.00139141580000
C        -2.61485199340000   -0.17071109120000   -0.00147129510000
C        -1.19591519560000   -0.39362520160000   -0.00073169250000
N        -0.65546190520000   -1.57026780430000   -0.00061182310000
N         0.65546350260000   -1.57026820210000    0.00041990210000
C         1.19591848690000   -0.39362562480000    0.00080201310000
C         2.61485163650000   -0.17070762990000    0.00164322070000
C         3.18665048490000    1.02870405710000   -0.00185619580000
S         0.00000245940000    0.89855088120000    0.00019022610000
H        -4.25625352490000    1.14205030330000    0.00080937230000
H        -2.60229081540000    1.93477567050000    0.00457942020000
H        -3.19987716170000   -1.07964439360000   -0.00435367360000
H         3.19987767710000   -1.07964227460000    0.00506261710000
H         2.60227294760000    1.93477905100000   -0.00563521700000
H         4.25624413010000    1.14205397690000   -0.00119435240000
