  26
        -32.77147022
 C          3.8861891544        1.0955575877        0.0735141654
 C          3.2125005464       -0.0463650943        0.1503005212
 C          1.7732728182       -0.2250843607        0.0165848489
 C          1.2403688157       -1.5135052740        0.0824792975
 C         -0.1154261784       -1.7213191506       -0.0411809174
 C         -0.9994683228       -0.6593554137       -0.2332157664
 C         -2.4311063661       -0.9197320702       -0.3670427999
 C         -3.0850753642       -1.8892473337        0.2591962066
 C         -0.4777677961        0.6417229564       -0.3081945905
 C         -1.3733231080        1.8404685384       -0.4594357649
 C         -2.1223800791        2.1342993664        0.8413846914
 C          0.8869422551        0.8334983826       -0.1776546371
 H          4.9565570687        1.1221314734        0.1862391409
 H          3.4099967873        2.0443584387       -0.1044508217
 H          3.7611980058       -0.9639566774        0.3278801214
 H          1.9014123458       -2.3567756753        0.2264977941
 H         -0.5055862306       -2.7279326725       -0.0092790202
 H         -2.9773249803       -0.2579323576       -1.0268625985
 H         -2.5985201805       -2.5529399202        0.9544024338
 H         -4.1410220668       -2.0436987861        0.1149912465
 H         -2.0948230917        1.6785875052       -1.2634925236
 H         -0.7696359276        2.7098292858       -0.7283445193
 H         -2.7446776573        1.2877707534        1.1226082957
 H         -2.7566232847        3.0105094251        0.7256923832
 H         -1.4156169617        2.3214534821        1.6470086100
 H          1.2707684760        1.8416645524       -0.2272879477
