  39
        -70.35835830
 F          3.6824943752       -1.4063455512        1.3558726715
 C          3.9610002618       -0.3242650092        0.6167489538
 F          4.6579735172        0.5089603869        1.4139011497
 F          4.8230638508       -0.7273542551       -0.3354380721
 C          2.7438124294        0.3346057347        0.0367959505
 C          1.4751376313       -0.1127001441        0.3698609079
 C          0.3555286259        0.4946967912       -0.1925181416
 N         -0.9397775551        0.0491083470        0.0989495287
 C         -1.8264202911        1.0676568193        0.5023391004
 C         -1.9151332986        2.2429791054       -0.2396391792
 S         -0.8728190202        2.4503786525       -1.6635574899
 C         -2.7789793769        3.2590625217        0.1346878469
 C         -3.5587057789        3.1122719647        1.2673161637
 C         -3.4399923736        1.9705365005        2.0436410480
 C         -2.5697070089        0.9612582655        1.6745272403
 C         -1.3463981858       -1.2756372192       -0.0835815256
 C         -0.4652961783       -2.2428378750       -0.5671138425
 C         -0.8839394099       -3.5443864186       -0.7669246878
 C         -2.1906512372       -3.9329022282       -0.5124565043
 C         -2.6455957292       -5.3461911405       -0.7113312614
 C         -3.0795860084       -2.9550098321       -0.0835244275
 C         -2.6755124302       -1.6517469370        0.1215739214
 C          0.5402426757        1.6078189887       -1.0183321979
 C          1.8134928632        2.0560761169       -1.3371970856
 C          2.9221292371        1.4090512958       -0.8283407349
 H          1.3481954267       -0.9335293681        1.0585661569
 H         -2.8363491868        4.1513489303       -0.4690294867
 H         -4.2430999019        3.8958585762        1.5526581806
 H         -4.0226976012        1.8665132158        2.9460924453
 H         -2.4601078126        0.0802243569        2.2884424990
 H          0.5508707202       -1.9830787627       -0.8180409464
 H         -0.1719787868       -4.2683020321       -1.1363343507
 H         -1.8331400118       -5.9672747037       -1.0794856412
 H         -3.4659582907       -5.3854382841       -1.4270775932
 H         -3.0045803512       -5.7654181001        0.2281709640
 H         -4.1142665073       -3.2153520267        0.0882201806
 H         -3.4098039435       -0.9197303087        0.4182973055
 H          1.9242436186        2.9036817141       -1.9946134033
 H          3.9168767173        1.7375228748       -1.0842400689
