22
 energy: -36.894794140898 gnorm: 0.000030006198 xtb: 6.4.1 (23d549d)
C         4.02957322300000    0.59325350570000   -0.13399870500000
C         3.29794029610000   -0.50365937800000    0.02365699870000
C         1.84345886570000   -0.57595203950000    0.04976966330000
C         1.21470534630000   -1.82365549310000    0.11649960770000
C        -0.15795941490000   -1.93460262260000    0.12963186540000
C        -0.99427657270000   -0.81459605900000    0.10011872940000
C        -2.44462046310000   -0.98084775030000    0.07945650390000
C        -3.06139971440000   -2.01586641500000   -0.47908082400000
C        -0.35668218530000    0.43688995010000    0.05940058320000
N        -1.07987972180000    1.68543746920000    0.03295431840000
O        -2.13444701900000    1.76634384160000    0.62604158200000
O        -0.56504764980000    2.60315574660000   -0.57170638670000
C         1.02573667710000    0.54840383520000    0.01757832520000
H         5.10476015610000    0.54829184290000   -0.14429010710000
H         3.59824090250000    1.57063714140000   -0.26422681550000
H         3.79574782390000   -1.45861978760000    0.13751769550000
H         1.81981152460000   -2.71799136960000    0.15546371690000
H        -0.60918128740000   -2.91282966430000    0.18691137870000
H        -3.02725079850000   -0.19182732890000    0.53040114070000
H        -2.53126985570000   -2.80815443170000   -0.98175846600000
H        -4.13465098210000   -2.09277713270000   -0.47201073490000
H         1.45037885710000    1.53918882210000   -0.02795433620000
