  26
        -37.09946477
 C          3.6465955412       -0.3534561361        0.2044086508
 C          2.4743365292       -0.7464197896       -0.2754881866
 C          1.2185401575       -0.0073748232       -0.1755517185
 C          1.1872092864        1.3720751064       -0.0072312395
 C         -0.0185014641        2.0628346054        0.0752647685
 N         -0.0313297788        3.4421808594        0.1575410574
 C         -1.2111527590        1.3498618576       -0.0086752461
 C         -1.2164977486       -0.0298136649       -0.1774106935
 C         -2.4585633085       -0.7915367342       -0.2799695854
 C         -3.6365492937       -0.4233312124        0.2054203546
 C          0.0073995299       -0.7057381298       -0.2714273073
 O          0.0203216879       -2.0837026962       -0.4492390845
 C          0.0172545292       -2.8092925142        0.7594124314
 H          4.5306340897       -0.9579122660        0.0931295190
 H          3.7730890896        0.5760264067        0.7341584145
 H          2.3905660691       -1.7044451844       -0.7722345782
 H          2.1136886489        1.9250457469        0.0330755313
 H          0.8115304533        3.8764175059        0.4965037410
 H         -0.8825124737        3.8607321052        0.4954321684
 H         -2.1479045904        1.8853759282        0.0303432546
 H         -2.3583490060       -1.7443451866       -0.7837064340
 H         -3.7781342524        0.4998800353        0.7422827920
 H         -4.5098544646       -1.0428077825        0.0920192034
 H          0.9033073400       -2.5800098608        1.3634413880
 H          0.0270644381       -3.8632341016        0.4852932744
 H         -0.8803391274       -2.5934085349        1.3511729922
