  45
        -51.80519092
 C         -6.4884699537        2.8696357536       -0.8222906294
 C         -5.7572346647        2.4306572809        0.4410430702
 C         -4.3199840131        2.9470130605        0.5162982447
 C         -3.3982300672        2.3322047275       -0.5346525368
 C         -1.9514877919        2.7873758043       -0.3559726801
 C         -1.0297318869        2.1696011052       -1.4047259189
 C          0.4049126823        2.6954841389       -1.3407322098
 C          1.1367651120        2.4219480928       -0.0244444211
 C          1.2141576229        0.9492600116        0.3769684308
 C          1.9636512144        0.0829285356       -0.6414422426
 C          2.0973263451       -1.3207250940       -0.1387467243
 C          1.0693083654       -2.2920695843       -0.2805781052
 C          1.3635977308       -3.4940434779        0.2731503996
 C          0.5377306131       -4.7303449913        0.3137273803
 S          2.9414300669       -3.4621653401        0.9994075595
 C          3.1763456331       -1.8026128206        0.5374963670
 C          4.4446132956       -1.1029518804        0.8872527927
 H         -7.5264167640        2.5457124938       -0.7894721525
 H         -6.0289192190        2.4408919990       -1.7089167144
 H         -6.4708024824        3.9535973144       -0.9142718882
 H         -5.7507862969        1.3394920836        0.4956537844
 H         -6.3054191175        2.8007673959        1.3109700290
 H         -3.9195411488        2.7203446262        1.5079644165
 H         -4.3219224539        4.0338356733        0.4033201118
 H         -3.7378680314        2.6122813672       -1.5332920731
 H         -3.4449793474        1.2426637264       -0.4604906513
 H         -1.6135578656        2.5082655468        0.6436399959
 H         -1.9040648093        3.8766355700       -0.4310870448
 H         -1.4290662291        2.3930519222       -2.3978876515
 H         -1.0326400316        1.0839508994       -1.2934483672
 H          0.3879930395        3.7771253318       -1.4988267593
 H          0.9733037921        2.2588082684       -2.1646906295
 H          0.6472704689        2.9750964684        0.7796861268
 H          2.1532712648        2.8146350540       -0.1147560056
 H          0.2104881243        0.5465463802        0.5203117935
 H          1.7292747589        0.8801151391        1.3386740143
 H          2.9513703151        0.5111721028       -0.8222777684
 H          1.4166170876        0.0694693409       -1.5853937431
 H          0.1413816931       -2.0910701231       -0.7879231411
 H         -0.4108080557       -4.5582751034       -0.1898086661
 H          0.3402441384       -5.0288740628        1.3432581356
 H          1.0527683119       -5.5549270176       -0.1789943699
 H          5.1108199686       -1.7758312217        1.4209764550
 H          4.2467513647       -0.2368686599        1.5191826940
 H          4.9525539636       -0.7546300880       -0.0129004347
