  27
        -49.33692171
 C         -3.6426227977        1.3275728661       -0.7694133204
 C         -2.5677155257        1.3699378264        0.0026005768
 C         -1.5395972197        0.3106106866       -0.0083995212
 C         -2.0103867235       -0.9739838221        0.2612625422
 C         -1.1660706963       -2.0655834346        0.2583094781
 Cl        -1.7935577397       -3.6430197404        0.5867371116
 C          0.1788482151       -1.9004172834       -0.0113834629
 C          0.6808876662       -0.6307617839       -0.2624322190
 C          2.1119192870       -0.5162455627       -0.5462720273
 C          2.9365498424        0.4325055260       -0.1377159487
 F          2.6652982762        1.4672249857        0.6420396432
 F          4.2358230540        0.4455567214       -0.4333724395
 C         -0.1743621448        0.4937189385       -0.2835419126
 O          0.4347868611        1.6283748456       -0.7056666480
 C         -0.1147649517        2.9170928855       -0.5190345903
 C          0.0145941934        3.3958807976        0.9230725574
 H         -4.4097232176        2.0809031778       -0.7154643488
 H         -3.7817498601        0.5488057619       -1.5007128154
 H         -2.4583062302        2.1606536028        0.7328950131
 H         -3.0600035149       -1.1048510597        0.4732903418
 H          0.8437304910       -2.7493966881       -0.0125648483
 H          2.5586868982       -1.3152668501       -1.1192746548
 H         -1.1551150505        2.9480179262       -0.8602673475
 H          0.4860234919        3.5542572923       -1.1743319070
 H         -0.4901218743        2.7152968284        1.6050466304
 H         -0.4196636822        4.3870196034        1.0214218956
 H          1.0630263101        3.4364029323        1.2043977475
