  41
        -49.69886960
 C         -4.1718069881        1.1297080533        2.6593836452
 C         -4.3636683578        0.3945765806        1.5662573522
 C         -3.3462148355        0.0305291191        0.6179269861
 C         -2.0062130694        0.3285155558        0.6043331310
 C         -1.3104944465       -0.2011816368       -0.4959384807
 C          0.1595764166       -0.0294644808       -0.7522553025
 C          0.8461406536        0.9534589695        0.1935688469
 C          2.3066880216        1.2127404051       -0.1814507286
 C          3.2171289406        0.0138262399        0.0758514432
 C          4.6654674119        0.2532215440       -0.3546517406
 C          5.3861732319        1.3880332668        0.3771089608
 C          5.4520291808        1.2381933358        1.8976978912
 C          6.2089582999       -0.0061096751        2.3467604620
 C         -2.1341460685       -0.9237323798       -1.3388591699
 C         -1.7685835100       -1.6101721305       -2.5463243997
 C         -2.6083886854       -2.2947878316       -3.3194188558
 S         -3.7732500090       -0.9337588127       -0.7604485334
 H         -4.9836638756        1.3628533413        3.3252171269
 H         -3.2054221281        1.5213035579        2.9254174396
 H         -5.3536845618        0.0215572700        1.3372508707
 H         -1.5430481799        0.9158422853        1.3747312693
 H          0.2989352028        0.3195841966       -1.7800251593
 H          0.6392967542       -1.0094060864       -0.6730302428
 H          0.8038978133        0.5712559481        1.2158482990
 H          0.3070808543        1.9034564394        0.1628039182
 H          2.6619519956        2.0616861182        0.4053782556
 H          2.3654544108        1.4923270806       -1.2364669755
 H          2.8453534089       -0.8489806231       -0.4810535816
 H          3.1828162363       -0.2442280685        1.1357710054
 H          4.6782194817        0.4797048157       -1.4242650561
 H          5.2260210548       -0.6731928750       -0.2148975327
 H          4.8995093271        2.3362926370        0.1400207348
 H          6.4065395732        1.4436710238       -0.0114676162
 H          4.4429082605        1.2200068107        2.3126016850
 H          5.9527566891        2.1210974399        2.3033866128
 H          5.6842071462       -0.9111989844        2.0521652495
 H          6.3139381236       -0.0137457992        3.4295552459
 H          7.2036936929       -0.0256604229        1.9062982328
 H         -0.7219965085       -1.5454168378       -2.8133211612
 H         -3.6548022574       -2.3786421078       -3.0765218116
 H         -2.2763522043       -2.7906727565       -4.2141470812
