  23
        -38.06262706
 C         -4.4061773951        0.3607591289       -0.6477786009
 C         -3.3543648088        0.7407936466        0.0623331227
 C         -2.0854882139        0.0059349121        0.1156933524
 C         -2.1091535627       -1.3860730584        0.1728426559
 C         -0.9371297924       -2.1104958139        0.2666839318
 C          0.2754290656       -1.4516998236        0.3212722863
 C          0.3255549148       -0.0600719532        0.2612279698
 C          1.6077649099        0.6363544478        0.3647925733
 C          2.7753189527        0.1898873819       -0.0661793624
 F          3.0198645399       -0.9422664112       -0.7163245302
 F          3.9190426920        0.8600964081        0.0803080764
 C         -0.8589416973        0.6789002013        0.1391687105
 C         -0.8060593271        2.1724142250       -0.0128587533
 H         -5.3269678225        0.9188511991       -0.6414101688
 H         -4.3816434892       -0.5125446494       -1.2783522150
 H         -3.4101894920        1.6378018769        0.6655469847
 H         -3.0609369140       -1.8954667443        0.1644736660
 H         -0.9676176650       -3.1885896769        0.3134595000
 H          1.1874324697       -2.0170985145        0.4280174014
 H          1.6236222123        1.6024323104        0.8457832538
 H          0.0498489002        2.4680614690       -0.6149346371
 H         -0.7223551697        2.6547344986        0.9623669509
 H         -1.7030354651        2.5416756743       -0.5014928679
  23
        -38.06209227
 C         -4.4820207249        0.4131198137        0.1992033514
 C         -3.3406067298        0.6920279988       -0.4114476659
 C         -2.0760299784       -0.0039171948       -0.1395064232
 C         -2.0986972352       -1.3929619891       -0.0229040512
 C         -0.9368538000       -2.1056612022        0.1961251541
 C          0.2679332326       -1.4384625262        0.2977853870
 C          0.3170622141       -0.0496764692        0.1915978775
 C          1.5907109791        0.6542233347        0.3257312115
 C          2.7844931826        0.1853768854        0.0028660970
 F          3.0786435820       -0.9917861799       -0.5377350547
 F          3.9122353808        0.8794437944        0.1638241773
 C         -0.8625747660        0.6812591556       -0.0196425917
 C         -0.8057522445        2.1797606429       -0.0949196507
 H         -5.3969681127        0.9260357361       -0.0438092081
 H         -4.5415404911       -0.3268465035        0.9801994552
 H         -3.3164600328        1.4548223780       -1.1792097996
 H         -3.0405499093       -1.9106036456       -0.1259381497
 H         -0.9674434030       -3.1811638481        0.2838274590
 H          1.1731232786       -1.9957213074        0.4780051267
 H          1.5806573594        1.6587686629        0.7195192074
 H         -0.1373427677        2.4998316674       -0.8933069825
 H         -0.4338636003        2.5904940545        0.8438390157
 H         -1.7877726029        2.6055438422       -0.2701205786
  23
        -38.06179487
 C         -4.1815447943        0.7054315739       -0.3562880775
 C         -2.9058920020        0.7067757364       -0.7150925415
 C         -1.8779127067       -0.1538254974       -0.1225292900
 C         -2.1955967190       -1.4631869888        0.2251426769
 C         -1.2426092779       -2.3004508773        0.7738812472
 C          0.0456592754       -1.8406376871        0.9536783267
 C          0.3947528948       -0.5413882134        0.5844551985
 C          1.7991547765       -0.1599987458        0.7750157533
 C          2.5711959574        0.4318405433       -0.1181663499
 F          2.2317413211        0.8108698086       -1.3448267972
 F          3.8561412521        0.7236537113        0.0867268742
 C         -0.5740374945        0.3259705872        0.0725030886
 C         -0.2687825871        1.7676767144       -0.2040102292
 H         -4.9049566685        1.3444712616       -0.8333537874
 H         -4.5498466390        0.0805472269        0.4404936145
 H         -2.5709519119        1.3710923952       -1.5007438570
 H         -3.1975066551       -1.8255883145        0.0516485697
 H         -1.5014263376       -3.3109928971        1.0521570494
 H          0.8025622912       -2.4918352737        1.3655659088
 H          2.2726256945       -0.4525025555        1.7008515342
 H          0.6009528223        2.0978959096        0.3587357704
 H         -1.1147835889        2.3919299859        0.0751099891
 H         -0.0641562674        1.9218424044       -1.2636412478
  23
        -38.06172735
 C         -4.4821315260        0.3899390293        0.1243472653
 C         -3.3053366056        0.7134734183       -0.3921428756
 C         -2.0593572128       -0.0093424817       -0.1229290407
 C         -2.0863955396       -1.3958540300        0.0007622306
 C         -0.9261369540       -2.1065219345        0.2387213431
 C          0.2729816103       -1.4354028491        0.3672587144
 C          0.3256821124       -0.0459850238        0.2543561261
 C          1.6123168897        0.6300384373        0.4491597839
 C          2.7755102198        0.1896987154        0.0035918088
 F          2.9935914356       -0.8886226932       -0.7408641777
 F          3.9367500877        0.8055124755        0.2282793230
 C         -0.8430068013        0.6787090273       -0.0045339162
 C         -0.8297910582        2.1702390939       -0.1730931467
 H         -5.3750179349        0.9438907913       -0.1104835490
 H         -4.5971112770       -0.4275969334        0.8165574431
 H         -3.2327152920        1.5637027169       -1.0570801775
 H         -3.0251502267       -1.9161497853       -0.1140946682
 H         -0.9553647590       -3.1820476946        0.3264732623
 H          1.1773781404       -1.9864968173        0.5726801140
 H          1.6398336690        1.5445469360        1.0217639448
 H          0.1570048826        2.5916883432       -0.0161307474
 H         -1.5262797361        2.6364923779        0.5225940365
 H         -1.1416524735        2.4322830182       -1.1843134861
  23
        -38.06169376
 C         -3.9473073289        1.3862403841        0.2886960676
 C         -3.4499130218        0.3397664939       -0.3530594556
 C         -2.1170542424       -0.2381256365       -0.1387871826
 C         -2.0501520447       -1.6235549325        0.0111815076
 C         -0.8504043709       -2.2547828977        0.2683595173
 C          0.3072163086       -1.5076582123        0.3702720836
 C          0.2716161934       -0.1270452674        0.1911420782
 C          1.4961571121        0.6628024719        0.3170686050
 C          2.7177988125        0.2628898657        0.0072124059
 F          3.0803542676       -0.9019847596       -0.5183300734
 F          3.8030039955        1.0217075783        0.1662338788
 C         -0.9444506864        0.5209926689       -0.0768355410
 C         -0.9479759676        1.9941364912       -0.3634105467
 H         -4.9522068805        1.7310200126        0.1118626051
 H         -3.3828889622        1.9235775100        1.0317595141
 H         -4.0730021871       -0.2038429557       -1.0533088764
 H         -2.9606334214       -2.2012703704       -0.0585464788
 H         -0.8154102473       -3.3262301679        0.3947734703
 H          1.2416247119       -1.9961436802        0.5962536125
 H          1.4160355882        1.6671811880        0.7038443603
 H         -0.1170063858        2.2534643850       -1.0168958156
 H         -0.8478574238        2.5700024069        0.5571266098
 H         -1.8738731986        2.2890068025       -0.8487227192
  23
        -38.06072389
 C         -4.0092458142        0.8348422474        0.6683271125
 C         -2.9813085582        0.8518191713       -0.1679563438
 C         -1.8985482582       -0.1350588235       -0.1593258245
 C         -2.2039315658       -1.4675466412        0.1067959823
 C         -1.2178485431       -2.4347161160        0.1183082263
 C          0.0935582639       -2.0701842560       -0.1078216242
 C          0.4281368983       -0.7377595101       -0.3458771777
 C          1.8583911323       -0.4466346358       -0.5150975380
 C          2.5379718039        0.4810732942        0.1336388809
 F          2.0631636579        1.3390149017        1.0293283334
 F          3.8477048597        0.6843723603       -0.0126008294
 C         -0.5695393209        0.2397880426       -0.4130910851
 C         -0.2391288203        1.6609358197       -0.7555635299
 H         -4.7884281156        1.5763183666        0.6215787067
 H         -4.1023339817        0.0945992830        1.4454550047
 H         -2.9163844359        1.6390583006       -0.9067450213
 H         -3.2327376733       -1.7454385356        0.2785265920
 H         -1.4697868270       -3.4676870337        0.3055211713
 H          0.8768781802       -2.8134516563       -0.0838793547
 H          2.4263211093       -1.0963979553       -1.1647153919
 H          0.7461786026        1.7379850768       -1.2071937850
 H         -0.2575857534        2.2829142409        0.1387682678
 H         -0.9629571383        2.0655736584       -1.4596869253
