21
 energy: -39.416741926821 gnorm: 0.000042947776 xtb: 6.4.1 (23d549d)
C        -3.22096617320000   -2.40561067390000   -0.06683837460000
C        -3.29082002220000   -1.08370840930000    0.03955779690000
C        -2.17096443410000   -0.15056395250000    0.02609770140000
C        -2.43770072310000    1.22240124320000    0.00659749660000
C        -1.41051375040000    2.14010403920000   -0.00975784530000
C        -0.08496866230000    1.70731751200000   -0.00359104520000
C         0.94078375870000    2.67740770850000   -0.01987835490000
N         1.75817316380000    3.48230223850000   -0.03329889860000
C         0.21395233020000    0.32927277200000    0.01961021410000
C         1.61220960420000   -0.07140063280000    0.02877528480000
C         2.11372844840000   -1.29824488240000    0.00615997510000
F         1.45458415820000   -2.44989831620000   -0.03060644970000
F         3.41685326220000   -1.55020619160000    0.01568378020000
C        -0.84260790450000   -0.57392395410000    0.03579251190000
H        -4.10993245850000   -3.01210807140000   -0.05003633020000
H        -2.29199603100000   -2.93762757220000   -0.17952062810000
H        -4.26238529530000   -0.61498952990000    0.13644102940000
H        -3.46158116450000    1.56619418170000    0.00178077120000
H        -1.61876075830000    3.19983516250000   -0.02610694660000
H         2.34312264140000    0.72522173980000    0.05174335330000
H        -0.63453584940000   -1.62918498170000    0.06462961500000
