  19
        -35.16766609
 C         -2.5044555705        2.6283485291       -0.0532164848
 C         -2.8608680845        1.3535653333        0.0443896584
 C         -1.9650276071        0.2042064363        0.0234907049
 C         -2.5026262436       -1.0871949697       -0.0002570304
 N         -1.7745006857       -2.1869802859       -0.0229365194
 C         -0.4625064840       -2.0715547882       -0.0217938181
 C          0.2079909202       -0.8421788649        0.0036315078
 C          1.6616555365       -0.8448710158        0.0057627944
 C          2.4806257569        0.1962810897        0.0019094516
 F          2.1599167443        1.4843410411       -0.0041747395
 F          3.8056456951        0.0822423379        0.0021118440
 C         -0.5751113992        0.3102085077        0.0287014760
 H         -3.2381369062        3.4155417726       -0.0330243727
 H         -1.4804427748        2.9426639470       -0.1610774827
 H         -3.9096070736        1.1006722591        0.1388997412
 H         -3.5747517578       -1.2381979245       -0.0027228517
 H          0.0902393687       -3.0019047357       -0.0400049403
 H          2.1404473072       -1.8133760911        0.0073276486
 H         -0.1137101004        1.2831225531        0.0595264969
  19
        -35.16687795
 C         -4.4040147205        1.5084251242       -0.0501877183
 C         -3.0972731071        1.7064714564        0.0707961599
 C         -2.0628536270        0.6810790220        0.0331342500
 C         -2.3291244269       -0.6916060076       -0.0188978687
 N         -1.3904045979       -1.6160034052       -0.0579985721
 C         -0.1233224137       -1.2507472217       -0.0456824770
 C          0.2849728652        0.0868326025        0.0135251401
 C          1.6720973127        0.5202221181        0.0352791774
 C          2.7636756554       -0.2298715399        0.0052251743
 F          2.8439504111       -1.5513180382       -0.0518015912
 F          3.9929554207        0.2782742303        0.0296395347
 C         -0.7203229313        1.0524654027        0.0536831618
 H         -5.0981576406        2.3302038682       -0.0128412299
 H         -4.8341526894        0.5325375201       -0.1943943727
 H         -2.7246894650        2.7153365290        0.2034142957
 H         -3.3423611459       -1.0674483385       -0.0243854036
 H          0.5882728747       -2.0618927146       -0.0825318164
 H          1.8439180870        1.5863741219        0.0815667820
 H         -0.4551825716        2.1006196566        0.0984708763
