  20
        -31.91836512
 C         -4.5161740949       -1.0699787164        0.0071032937
 C         -3.7262696166        0.0013932198        0.0018426461
 C         -2.2887673178       -0.0240274648       -0.0008687445
 C         -1.4315672507       -1.0957817752       -0.0017456499
 C         -0.0904864178       -0.6915268022       -0.0025769617
 S          1.4304589014       -1.5079797520       -0.0022235491
 C          2.2887705712        0.0240179152       -0.0009069363
 C          3.7262741731       -0.0013782971        0.0017756634
 C          4.5161490828        1.0700135103        0.0073220764
 C          1.4315669428        1.0957708317       -0.0015456854
 C          0.0904886968        0.6915146344       -0.0024310193
 S         -1.4304517772        1.5079699413       -0.0018673654
 H         -5.5871999400       -0.9727319878        0.0093651724
 H         -4.1244905026       -2.0721524508        0.0095371773
 H         -4.1625450616        0.9919487419       -0.0000000541
 H         -1.7511642072       -2.1208139013       -0.0016860959
 H          4.1625740916       -0.9919201092       -0.0003268591
 H          4.1244344492        2.0721764029        0.0100440714
 H          5.5871789673        0.9728004202        0.0095143682
 H          1.7511670985        2.1208017011       -0.0012827080
