  29
        -43.88139553
 C         -3.5100666932        2.1780495547        0.0004742962
 C         -2.6104531515        1.0043539660        0.0000902549
 N         -3.0732112154       -0.2817020169       -0.0011383520
 C         -2.0028948395       -1.0217430968       -0.0007743627
 C         -1.9592450047       -2.4950294081       -0.0014320900
 N         -0.8906031575       -0.2068389393        0.0004510017
 C          0.4611889012       -0.5725229832        0.0010128826
 O          0.8011348479       -1.7264458841        0.0027615099
 O          1.2131718875        0.5037021397       -0.0005413197
 C          2.6629983435        0.4040735726       -0.0004608465
 C          3.1257833012        1.8597957973       -0.0040442637
 C          3.1371208412       -0.3133071255        1.2620475439
 C          3.1369191283       -0.3193517499       -1.2596177845
 N         -1.3080744610        1.0837845176        0.0010209716
 H         -4.1510695582        2.1478057351        0.8793810833
 H         -4.1476021964        2.1512689166       -0.8810920417
 H         -2.9186208939        3.0883057428        0.0034013379
 H         -2.9760912263       -2.8760470828       -0.0056833492
 H         -1.4280087606       -2.8558294157        0.8776647208
 H         -1.4205929568       -2.8551048148       -0.8762455309
 H          2.7455532421        2.3718940073        0.8753311897
 H          2.7463742140        2.3673617758       -0.8863983870
 H          4.2106345271        1.9056093630       -0.0036561667
 H          2.7424968909        0.1849016126        2.1449764920
 H          4.2224259543       -0.2960050221        1.3041904408
 H          2.8025222579       -1.3472585699        1.2614977057
 H          2.7396553350        0.1728940164       -2.1447037999
 H          2.8048841988       -1.3540893993       -1.2527074864
 H          4.2221024988       -0.2995272402       -1.3036082147
  29
        -43.87759116
 C         -4.2679027966        1.3175536959       -0.4975894647
 C         -2.9666787990        0.6696904407       -0.2272223463
 N         -2.8551487314       -0.5363931182        0.4064264807
 C         -1.5762534238       -0.7691837922        0.4620441735
 C         -0.9590260945       -1.9700869992        1.0589552683
 N         -0.8989850642        0.2769568504       -0.1297925145
 C          0.4677359332        0.5241149456       -0.3368927319
 O          0.8602579786        1.4815189843       -0.9346048709
 O          1.1886444299       -0.4400339123        0.2200545014
 C          2.6427396838       -0.4081292321        0.1430416221
 C          3.1778397328        0.8495725996        0.8239928862
 C          3.0754764156       -1.6598835291        0.9062041899
 C          3.0898012440       -0.4825734924       -1.3151574607
 N         -1.8148948509        1.1797571051       -0.5618938888
 H         -4.8775068522        0.6692847576       -1.1239825424
 H         -4.1010210075        2.2663132477       -0.9975319351
 H         -4.7993541315        1.4776882309        0.4383945474
 H         -1.7533914921       -2.6182155899        1.4178403690
 H         -0.3079760117       -1.6936020655        1.8858102266
 H         -0.3586555204       -2.4972711226        0.3202261969
 H          2.8035625973        0.9126410227        1.8436991909
 H          2.8684054749        1.7379005051        0.2804998883
 H          4.2631238872        0.8135812169        0.8500670926
 H          2.7242576203       -1.6131902638        1.9335821920
 H          4.1584618063       -1.7350359452        0.9070779080
 H          2.6602006880       -2.5482798431        0.4379601609
 H          2.7723173674        0.4048833823       -1.8555836637
 H          2.6611547562       -1.3598217526       -1.7953958340
 H          4.1728188245       -0.5522975452       -1.3595875364
