26
 energy: -41.834376081928 gnorm: 0.000032701758 xtb: 6.4.1 (23d549d)
C         4.26062510090000    1.53583144300000    0.16078460920000
C         2.99355374660000    1.92451108240000    0.04932246820000
C         1.87104766590000    1.02406429730000   -0.00469800350000
C         0.53001191600000    1.29271537510000   -0.11772534200000
C        -0.13019347900000    0.04012657740000   -0.12506632280000
C        -1.56969703430000   -0.20042892040000   -0.22752401830000
O        -2.09472577510000   -1.28967790660000   -0.24270897140000
O        -2.24877370740000    0.95372849040000   -0.31537477300000
C        -3.66823451070000    0.85776177080000   -0.40657096420000
C        -4.30598288570000    0.67748854710000    0.96403527570000
C         0.86912211680000   -0.92054806510000   -0.01353550170000
C         0.76392449000000   -2.35344268610000    0.03068196770000
C         1.80962940380000   -3.16977868010000    0.14392769270000
O         2.06660366110000   -0.31641487490000    0.05812161120000
H         5.06815240280000    2.24508080910000    0.19710992240000
H         4.52160577760000    0.49304897770000    0.21852437190000
H         2.73076146390000    2.97127766050000   -0.00886229560000
H         0.06589700100000    2.25426327730000   -0.18793899520000
H        -3.92627268490000    0.01404006870000   -1.05556921190000
H        -3.98610248600000    1.79467232050000   -0.86911187890000
H        -3.98821579190000   -0.26732658630000    1.39809052510000
H        -5.38771034690000    0.67360146040000    0.86507468120000
H        -4.01102539070000    1.48817089700000    1.62616153970000
H        -0.24791932250000   -2.72471701320000   -0.03637753980000
H         2.81523394160000   -2.78934292850000    0.20964512820000
H         1.68801707280000   -4.23785969310000    0.17378442970000
