  18
        -26.98566221
 C          3.6740120296        0.6305549746       -0.0064753268
 C          2.8102221913       -0.3782017181        0.0023208034
 C          1.3628883899       -0.2633576402        0.0019881719
 C          0.5549140617       -1.4064605738        0.0034764305
 N         -0.7596518232       -1.3598794234        0.0030955594
 C         -1.3337588778       -0.1558428361        0.0009215523
 C         -2.7882129095       -0.1241810463        0.0001866240
 C         -3.4908846973        1.0022640315       -0.0050567115
 N         -0.6625027825        0.9977259264       -0.0001970714
 C          0.6503096183        0.9427174166        0.0006291355
 H          4.7360160440        0.4560389546       -0.0055468388
 H          3.3636656045        1.6613109886       -0.0152031868
 H          3.1786397683       -1.3973509381        0.0100289236
 H          0.9931140884       -2.3985083034        0.0048645368
 H         -3.2566684313       -1.0976982240        0.0038693388
 H         -2.9926911137        1.9567747129       -0.0089821001
 H         -4.5673262789        1.0020274875       -0.0054378324
 H          1.1546171749        1.9008874805        0.0000719068
