  36
        -61.85415679
 F         -6.2122053766       -1.2660500559       -0.2464057421
 C         -4.8809575617       -1.3660115948       -0.2297747820
 F         -4.5488900537       -2.6468344542       -0.3642759490
 C         -4.0808755506       -0.3181289976       -0.0987537598
 C         -2.6292235770       -0.2738684115       -0.0654878236
 C         -2.0211924051        0.9742732026        0.0551656038
 C         -0.6403337833        1.0597011087        0.0837239952
 C          0.2787316028        2.1563087881        0.2137864945
 C          0.1172596694        3.5304334615        0.3313563471
 C          1.2442667992        4.3229669337        0.4171821874
 C          2.5192620682        3.7630728252        0.3724697998
 C          2.7052380581        2.3988587211        0.2560242910
 C          1.5760692240        1.5952895651        0.1926887067
 N          1.4788566328        0.2238405726        0.0525865955
 C          2.5566489338       -0.6732136477       -0.0095017169
 C          3.5509309045       -0.6382725136        0.9633218275
 C          4.6130322178       -1.5208890360        0.8951073670
 C          4.6869226024       -2.4471013625       -0.1319653690
 C          3.6948953296       -2.4859828357       -1.0976557234
 C          2.6340767844       -1.6008508466       -1.0437896009
 C          0.1464679677       -0.1126201592       -0.0164028133
 C         -0.4533340134       -1.3618600557       -0.1109122548
 C         -1.8295482231       -1.4273773409       -0.1382002854
 H         -4.5903679376        0.6307385625       -0.0081578197
 H         -2.6218557909        1.8684453100        0.1291125565
 H         -0.8704834286        3.9654409981        0.3503804219
 H          1.1415315717        5.3936475432        0.5113722891
 H          3.3820985524        4.4102888216        0.4264422471
 H          3.6971022630        1.9758651259        0.2048493166
 H          3.4777340003        0.0709332619        1.7742670892
 H          5.3821475237       -1.4903671170        1.6525134774
 H          5.5156079246       -3.1371579403       -0.1795491193
 H          3.7507281130       -3.2040663662       -1.9021937605
 H          1.8695359005       -1.6134166105       -1.8062015604
 H          0.1388129441       -2.2633229675       -0.1509550422
 H         -2.2966238348       -2.3950813339       -0.2125177810
