25
 energy: -33.037798858923 gnorm: 0.000077660406 xtb: 6.4.1 (23d549d)
C        -3.76924131650000    1.25432144010000   -0.07676622330000
C        -3.14974248330000    0.07895904590000   -0.06233962230000
C        -1.71511506090000   -0.15621919370000   -0.02221813400000
C        -1.23663343410000   -1.46799057070000   -0.03835634590000
C         0.11246594050000   -1.74067015420000   -0.00284712740000
C         1.05623562700000   -0.71099153500000    0.04791760410000
N         2.40115398600000   -0.97242652490000   -0.02025677550000
C         2.95953958790000   -2.28393650320000    0.18644178200000
C         0.59116666190000    0.62361755440000    0.08673565390000
C         1.52177028690000    1.74641883130000    0.20584072170000
C         1.35950174590000    2.93135349660000   -0.36711389140000
C        -0.77330184710000    0.86790388020000    0.04560454420000
H        -4.84337529050000    1.32055859870000   -0.10861641290000
H        -3.24138984530000    2.19232663530000   -0.05786539420000
H        -3.74889174930000   -0.82425013610000   -0.08609462190000
H        -1.93933390490000   -2.28886600460000   -0.07744613460000
H         0.44058794640000   -2.76787883980000   -0.01841347310000
H         3.00540608880000   -0.20034155370000    0.20860506350000
H         2.62092104700000   -2.96368358310000   -0.59783394220000
H         2.68491618850000   -2.71018499380000    1.15954759730000
H         4.04385839300000   -2.21534555720000    0.13004749350000
H         2.39322427840000    1.58719062890000    0.83341549450000
H         0.52627129160000    3.13870070570000   -1.01689372350000
H         2.06146938290000    3.73442249650000   -0.21924558400000
H        -1.10507779400000    1.89289747060000    0.09775380020000
