  32
        -53.29962273
 C         -2.6977073171       -3.1050234342        0.9781142121
 C         -2.4716951840       -2.4756816244       -0.3960791750
 N         -1.9225597226       -1.1505749863       -0.2894026938
 C         -2.6501324489        0.0100975864       -0.1540460750
 C         -1.7652045029        1.1050418286       -0.0094961209
 C         -2.2662522748        2.3922402360        0.1308374906
 C         -3.6348573240        2.5726576507        0.1280390683
 C         -4.4997706464        1.4894076621       -0.0108490431
 C         -4.0250894978        0.1995627134       -0.1519843616
 C         -0.5900344529       -0.8422531313       -0.2058705996
 C         -0.4383194713        0.5572986747       -0.0427557704
 C          0.8244908748        1.1143753561        0.0531570300
 C          1.9457321747        0.2890456655       -0.0098762122
 C          3.2526681540        0.9141594207        0.0942299984
 C          4.4522573436        0.3528531749        0.0590884989
 F          4.7587393345       -0.9343933364       -0.0805531617
 F          5.5854218799        1.0516978494        0.1664975021
 C          1.7743889173       -1.0969371373       -0.1677474463
 C          0.5249554665       -1.6696281848       -0.2647726665
 H         -3.1127531923       -4.1034784777        0.8701492462
 H         -3.3877526291       -2.4989641059        1.5605680776
 H         -1.7572768981       -3.1725291097        1.5201011618
 H         -3.4174576395       -2.4153901639       -0.9413558496
 H         -1.7822962316       -3.0902524341       -0.9813058269
 H         -1.5960600945        3.2314129422        0.2404626223
 H         -4.0460991162        3.5651098897        0.2364441216
 H         -5.5660115587        1.6617959737       -0.0060455549
 H         -4.7105544642       -0.6283437856       -0.2541028481
 H          0.9394517352        2.1808993683        0.1767197456
 H          3.2603537719        1.9880204091        0.2166916095
 H          2.6389311436       -1.7378986413       -0.2129316951
 H          0.4281466579       -2.7384097090       -0.3809698227
  32
        -53.29958787
 C         -3.0547536305       -3.0956620588        0.9728799152
 C         -2.7499652236       -2.5076728287       -0.4045027268
 N         -1.9785930324       -1.2977878773       -0.3064079656
 C         -2.4933955294       -0.0305123004       -0.1466695113
 C         -1.4308256188        0.8947939335       -0.0177716448
 C         -1.6990383008        2.2475109808        0.1425275889
 C         -3.0161896871        2.6597209858        0.1748664294
 C         -4.0573341673        1.7423895033        0.0510993858
 C         -3.8149725541        0.3915432592       -0.1095205110
 C         -0.6115928763       -1.2226392967       -0.2533979544
 C         -0.2180934529        0.1287123506       -0.0862920266
 C          1.1211607913        0.4713023537       -0.0160559349
 C          2.0820962444       -0.5326443053       -0.1098636963
 C          3.5101762516       -0.2742192536       -0.0462970622
 C          4.1370256276        0.8837673964        0.1006331705
 F          3.6073168887        2.0973176296        0.2267011869
 F          5.4676352606        0.9910099223        0.1442980867
 C          1.6715144213       -1.8677909847       -0.2719746447
 C          0.3440321954       -2.2275775693       -0.3437386840
 H         -3.6398398004       -4.0058173288        0.8719123842
 H         -3.6166011970       -2.3814873296        1.5703568999
 H         -2.1299078934       -3.3287945724        1.4954590005
 H         -3.6816421875       -2.2822529293       -0.9304983318
 H         -2.1887472695       -3.2290150470       -1.0046961203
 H         -0.8914958201        2.9569176863        0.2402414357
 H         -3.2483552578        3.7067807554        0.2994542432
 H         -5.0777915249        2.0949842691        0.0834990671
 H         -4.6347441092       -0.3053847291       -0.1995649599
 H          1.4011568471        1.5035423106        0.1106524376
 H          4.1601664002       -1.1336354357       -0.1291812099
 H          2.4269772118       -2.6369138396       -0.3400553177
 H          0.0660929139       -3.2638091485       -0.4639367090
