  24
        -33.65961701
 C         -3.6183382612        0.3355903626        0.0758094229
 C         -2.4530035239       -0.1062194771        0.5286774816
 C         -1.1562455767        0.5036019968        0.2332848968
 C         -1.0641217093        1.8744551111        0.0176818411
 C          0.1478936189        2.4533235830       -0.3075287851
 C          1.2823478310        1.6740112078       -0.3787701781
 C          1.2229772397        0.2999929500       -0.1393467725
 O          2.4381052571       -0.3249800047       -0.2108208623
 C          2.6977916474       -1.4928806537        0.5305713164
 C         -0.0070249876       -0.3042818331        0.1426438963
 C         -0.1711303957       -1.7659481228        0.2538995869
 C          0.0434288838       -2.5960143871       -0.7534489260
 H         -4.5440299942       -0.1503670630        0.3331346121
 H         -3.6941909025        1.1843084740       -0.5827376973
 H         -2.4339226517       -0.9899146562        1.1526317526
 H         -1.9479860752        2.4857127334        0.1123660281
 H          0.2120565932        3.5158229600       -0.4884362173
 H          2.2446561943        2.1018156503       -0.6120487178
 H          3.7648205757       -1.4679704328        0.7597800699
 H          2.4753971308       -2.3953423230       -0.0462662614
 H          2.1295225022       -1.5161535530        1.4632581584
 H         -0.5269261949       -2.1462992141        1.2050682301
 H          0.3747225252       -2.2390745987       -1.7151159057
 H         -0.1071892233       -3.6585730019       -0.6598325550
