  34
        -46.60804973
 C          6.9424385415        0.3816721609        0.8358128927
 C          6.1662408854       -0.0104230793       -0.1686915401
 C          4.7119758842       -0.0531556082       -0.1833985703
 C          4.0575114350       -0.4914452675       -1.3376105057
 C          2.6834366093       -0.5498602677       -1.3995348957
 C          1.8906136015       -0.1660080008       -0.3123573612
 C          0.4501739993       -0.2410251017       -0.4354797858
 C         -0.4501435272        0.2284892815        0.4428927509
 C         -1.8905831739        0.1607789657        0.3153768210
 C         -2.5463219485       -0.5611415248       -0.6879312708
 C         -3.9203551214       -0.5908726037       -0.7638892631
 C         -4.7121586954        0.0999390769        0.1574017809
 C         -6.1666174559        0.1013054149        0.1184365446
 C         -6.9417227704       -0.5494193815       -0.7423801393
 C         -4.0591702031        0.8189973622        1.1619734321
 C         -2.6849964703        0.8454811878        1.2416469790
 C          2.5478114959        0.2671504510        0.8444503652
 C          3.9218236322        0.3212870000        0.9067609059
 H          8.0153460513        0.3774493160        0.7476132969
 H          6.5504282437        0.7205174336        1.7793156885
 H          6.6328223134       -0.3384695073       -1.0902878372
 H          4.6436986282       -0.7906858849       -2.1956686580
 H          2.2043104992       -0.8929597789       -2.3062194690
 H          0.1052915350       -0.7096505314       -1.3480881659
 H         -0.1053585068        0.7317891583        1.3369035753
 H         -1.9709856827       -1.1149456287       -1.4141083080
 H         -4.3890843050       -1.1601957832       -1.5518789291
 H         -6.6343270248        0.7048941049        0.8875837802
 H         -6.5485053635       -1.1695210890       -1.5295060862
 H         -8.0149144525       -0.4844239223       -0.6878791304
 H         -4.6466175775        1.3615105368        1.8899908871
 H         -2.2071130348        1.4100455622        2.0304771922
 H          1.9736460751        0.5565522639        1.7114379753
 H          4.3918783832        0.6580698981        1.8180223421
