  24
        -37.07537655
 C          4.0885483188       -0.8450021820        0.0946280850
 C          3.2613216946        0.1917274761        0.0295304190
 C          1.8065594430        0.1376693138        0.0205280286
 C          1.0687284462       -1.0436729340        0.0808565828
 C         -0.3187160436       -1.0707987556        0.0738919580
 C         -1.0514669765       -2.3304984175        0.1460350612
 C         -0.6006761612       -3.5103430404       -0.2591558413
 C         -1.0200591531        0.1496000312        0.0169765562
 S         -2.7826089731        0.0969095211        0.0010766238
 C         -3.2767328995        1.8421190383        0.0554694820
 C         -0.3144460943        1.3414488503       -0.0510758622
 C          1.0646416573        1.3180605657       -0.0479825048
 F          1.7039651855        2.5084592999       -0.1102589747
 H          5.1553901488       -0.7042698161        0.0953184625
 H          3.7476160636       -1.8645208691        0.1502459403
 H          3.6736055777        1.1910294019       -0.0237147337
 H          1.5950833859       -1.9808237148        0.1544650767
 H         -2.0530612662       -2.2524727520        0.5498725471
 H          0.3705381586       -3.6361131079       -0.7074772666
 H         -1.2014186337       -4.3988280287       -0.1719705492
 H         -4.3609239905        1.8294766315        0.1128802872
 H         -2.9647603099        2.3507731004       -0.8520841538
 H         -2.8671901754        2.3191367336        0.9408964944
 H         -0.8035603826        2.2995688951       -0.1074982330
  24
        -37.07446533
 C          4.2012444778        0.5859577501       -0.0360294477
 C          3.2460955063       -0.3299581031        0.0811781852
 C          1.8045586251       -0.1260297167        0.0524275201
 C          0.9682212786       -1.2433663719        0.1035472607
 C         -0.4170202366       -1.1713397771        0.0814353258
 C         -1.2434558918       -2.3716889802        0.1423505382
 C         -0.8745643108       -3.5853226711       -0.2457921419
 C         -1.0196722144        0.0995986029        0.0201796046
 S         -2.7804375845        0.1883220142       -0.0174337740
 C         -3.1338006028        1.9679598469        0.0068585823
 C         -0.2183389870        1.2292160703       -0.0327778470
 C          1.1570859217        1.1083748759       -0.0167421523
 F          1.8555666812        2.2643056146       -0.0616124251
 H          5.2395867730        0.3019320446       -0.0012908640
 H          4.0037429028        1.6336461031       -0.1701540823
 H          3.5311147799       -1.3678865242        0.2072582607
 H          1.4279856619       -2.2171018088        0.1792869921
 H         -2.2452401578       -2.2151210471        0.5222381411
 H          0.0945842178       -3.7885588482       -0.6693862301
 H         -1.5434611674       -4.4246480261       -0.1681737619
 H         -4.2166719276        2.0428281484        0.0346547164
 H         -2.7578417464        2.4386196344       -0.8969236115
 H         -2.7109950818        2.4216576849        0.8983389483
 H         -0.6297154160        2.2235429540       -0.0865418640
  24
        -37.07236951
 C          3.9650400851       -1.0046038733       -0.4900497446
 C          3.2637598040        0.0741627509       -0.1636648450
 C          1.8166342560        0.1448540175       -0.0052611850
 C          0.9861507828       -0.9733519140        0.0071435440
 C         -0.3923029961       -0.8857635654        0.1661985997
 C         -1.2221634419       -2.0858298370        0.2409318644
 C         -0.9673326539       -3.2334596535       -0.3724786632
 C         -0.9648903652        0.3855652352        0.3017672121
 S         -2.7269899153        0.6030184914        0.4617691367
 C         -3.2498784740        0.0233935678       -1.1849328660
 C         -0.1683312174        1.5181595959        0.3114503937
 C          1.1965588968        1.3863816931        0.1656023972
 F          1.9479570196        2.5082418561        0.1767336882
 H          5.0358546408       -0.9622467886       -0.5871899564
 H          3.5121522241       -1.9630587692       -0.6779787023
 H          3.7799987863        1.0119861265       -0.0058293648
 H          1.4297035842       -1.9526604801       -0.0721283709
 H         -2.1122726522       -1.9835822806        0.8499984367
 H         -0.1141942978       -3.3643714183       -1.0174122405
 H         -1.6171104682       -4.0848569242       -0.2649766673
 H         -4.3327845699        0.0871287703       -1.2000603083
 H         -2.9286030832       -1.0022578687       -1.3379718139
 H         -2.8256599989        0.6768410798       -1.9415481457
 H         -0.6075204828        2.4960073084        0.4299159813
  24
        -37.07208767
 C          4.2461994045        0.8064328801       -0.0552967405
 C          3.3498127557       -0.1654268821       -0.1855909252
 C          1.9012132351       -0.0630323010       -0.0818409120
 C          1.1345507679       -1.2220546469       -0.2098814156
 C         -0.2519375161       -1.2542547369       -0.1216106921
 C         -0.9129135878       -2.5503144352       -0.2517735804
 C         -2.0111698763       -2.9345227415        0.3833743377
 C         -0.9341069030       -0.0394146075        0.0653922605
 S         -2.6981582538        0.0033340547        0.0767268519
 C         -3.0700560194        1.7158479499       -0.4121668644
 C         -0.1996444678        1.1305005967        0.2042567925
 C          1.1777198785        1.1109386586        0.1368881350
 F          1.8002315900        2.3011074491        0.2846524850
 H          5.2982123408        0.5978906117       -0.1541853190
 H          3.9857634819        1.8281682334        0.1518143572
 H          3.6965024144       -1.1715418308       -0.3905425436
 H          1.6515995760       -2.1568676336       -0.3757526543
 H         -0.4027048178       -3.2484758739       -0.9044400384
 H         -2.5234078665       -2.3017301694        1.0866248623
 H         -2.4256561587       -3.9172298742        0.2361385960
 H         -4.1191122251        1.7124782549       -0.6919191108
 H         -2.4592205494        1.9956222853       -1.2647655819
 H         -2.9201556611        2.3952875409        0.4218841034
 H         -0.6780449845        2.0811339814        0.3740820670
  24
        -37.07017383
 C          4.0992166603       -0.7453732998       -0.6952042848
 C          3.3396096742        0.2289903118       -0.2094159656
 C          1.8910405092        0.1988810641       -0.0562936793
 C          1.1116757691       -0.9359922612       -0.2681008447
 C         -0.2694008382       -0.9546796585       -0.1008278937
 C         -0.9499637886       -2.2439138962       -0.2619091747
 C         -1.9168287529       -2.7007497298        0.5206936689
 C         -0.9110674736        0.2433747309        0.2346109414
 S         -2.6816987632        0.4125931243        0.3616521372
 C         -3.1632065399       -0.0542073648       -1.3293742048
 C         -0.1646793916        1.3901177714        0.4609502462
 C          1.2070123584        1.3538573332        0.3327686788
 F          1.8979110001        2.4906643435        0.5644717665
 H          5.1663910025       -0.6310206836       -0.7722274489
 H          3.7000389715       -1.6845976437       -1.0380023565
 H          3.8045875497        1.1545312184        0.1038632925
 H          1.5995473312       -1.8589547198       -0.5418368718
 H         -0.5500682004       -2.8723418703       -1.0494337744
 H         -2.3138646197       -2.1210277518        1.3362102249
 H         -2.3439212478       -3.6781504246        0.3725550129
 H         -4.2373128225        0.0866597361       -1.3870858125
 H         -2.9082279280       -1.0932139213       -1.5134984480
 H         -2.6603788412        0.6003770003       -2.0347638913
 H         -0.6556558898        2.3114344673        0.7316765147
  24
        -37.06935487
 C          4.2843024317        0.6067735577        0.3959627268
 C          3.2948273718       -0.2749602377        0.4860175507
 C          1.8815797020       -0.0619234101        0.2028168777
 C          0.9943784299       -1.1193018649        0.4090023698
 C         -0.3724858102       -1.0467089425        0.1627911907
 C         -1.1578607962       -2.2721568499        0.3386381853
 C         -2.1215341393       -2.6861930752       -0.4714082325
 C         -0.8949997003        0.1809309729       -0.2582491459
 S         -2.6352935103        0.4855362323       -0.5001279847
 C         -3.2479381628        0.1399837889        1.1776488270
 C         -0.0432207460        1.2515049538       -0.4809082485
 C          1.3141174411        1.1247761472       -0.2691075056
 F          2.0744552612        2.2112747915       -0.5169370334
 H          5.2946012843        0.3214671028        0.6367054121
 H          4.1430993681        1.6263513915        0.0875903661
 H          3.5225319190       -1.2842374309        0.8084387556
 H          1.3970243259       -2.0609557335        0.7561203689
 H         -0.8440622993       -2.8959899697        1.1677252312
 H         -2.4354336849       -2.1126895983       -1.3265813055
 H         -2.6294776228       -3.6213427167       -0.3064955210
 H         -4.3097520996        0.3618841673        1.1633489316
 H         -2.7381303102        0.7900942559        1.8822058903
 H         -3.0837292464       -0.9045279566        1.4235509960
 H         -0.4409458465        2.1959152702       -0.8178603166
