  44
        -60.76976474
 C          3.6365966252       -0.0017791041        1.2572323521
 C          2.7522343160       -0.0020395966       -0.0030642277
 C          1.9040292753        1.2559210817       -0.0015952271
 C          0.5056549949        1.2104778636        0.0013369076
 N         -0.1662788342        0.0007071273        0.0040953108
 C          0.5033976543       -1.2103085192        0.0039026558
 C          1.9016812838       -1.2584045652        0.0004251985
 C          2.5174614280       -2.5021175247        0.0002919705
 C          1.7936242191       -3.6802955856        0.0037554347
 C          0.4116268684       -3.6248868014        0.0081881566
 C         -0.2265794985       -2.4027383326        0.0085109992
 C         -1.5898338056        0.0018244903        0.0037099319
 C         -2.2867781867       -0.0146989829       -1.1981426957
 C         -3.6682063401       -0.0131969496       -1.1936069696
 C         -4.3791790295        0.0052168478        0.0019309057
 C         -5.8772382687       -0.0040848473       -0.0126310956
 C         -3.6715886373        0.0216928146        1.1966790343
 C         -2.2882609610        0.0199638857        1.2029233883
 C         -0.2221023825        2.4042651829        0.0005516444
 C          0.4184168107        3.6252051650       -0.0015935992
 C          1.8005249786        3.6780055811       -0.0036245416
 C          2.5221544222        2.4984698184       -0.0039786342
 C          3.6288191489       -0.0039485138       -1.2688068557
 H          3.0107229397       -0.0002693239        2.1478029789
 H          4.2735660540        0.8780589872        1.2845457351
 H          4.2717585700       -0.8828614633        1.2862520909
 H          3.5956156674       -2.5606246841       -0.0025760161
 H          2.3052636130       -4.6307919097        0.0032967417
 H         -0.1732224899       -4.5328401399        0.0114795988
 H         -1.3053247305       -2.3647905713        0.0126126311
 H         -1.7383290650       -0.0283540737       -2.1284970233
 H         -4.2060506877       -0.0258461487       -2.1307263061
 H         -6.2430493266       -0.9659374959       -0.3717953617
 H         -6.2579753608        0.7660969248       -0.6812664530
 H         -6.2784208003        0.1661090379        0.9830888276
 H         -4.2074561120        0.0364853531        2.1348548435
 H         -1.7421284208        0.0336575091        2.1346256759
 H         -1.3009258281        2.3683684396        0.0015292071
 H         -0.1647245209        4.5342580096       -0.0017659323
 H          2.3139586719        4.6275342117       -0.0052809488
 H          3.6004194520        2.5549402494       -0.0063507396
 H          4.2654550269        0.8759397163       -1.3017119526
 H          2.9974685142       -0.0042210859       -2.1555121983
 H          4.2638707061       -0.8850478611       -1.3000552757
