  23
        -36.71887925
 C         -4.3738717586       -0.0396499273        0.0024009026
 C         -3.2289308131        0.6331405730        0.0008578488
 C         -1.8877931188        0.0657967971       -0.0248754040
 C         -1.6319214557       -1.3067726221       -0.0677828440
 C         -0.3409228333       -1.7847861558       -0.0994228910
 C          0.7645218384       -0.9306036864       -0.0962993520
 C          2.1252337111       -1.4564719018       -0.1231450188
 C          2.4836351585       -2.6508921668        0.3323527972
 C          0.5161165867        0.4521600846       -0.0500680123
 C          1.6221609449        1.4573140098       -0.0580433570
 O          2.5716586576        1.4273765719       -0.7895961543
 O          1.4763411838        2.4647142624        0.8277394572
 C         -0.7901476810        0.9248543095       -0.0087499666
 H         -5.3207266857        0.4715731276        0.0219668841
 H         -4.4204348697       -1.1147557009       -0.0161028038
 H         -3.2590815670        1.7160848265        0.0192799356
 H         -2.4529869575       -2.0060789383       -0.0858287518
 H         -0.1751178257       -2.8496559877       -0.1542446053
 H          2.8725160293       -0.7924472294       -0.5316676771
 H          1.7856228999       -3.3365122624        0.7843012845
 H          3.5068640033       -2.9810079291        0.2853800063
 H          0.6840477859        2.3618474569        1.3720900064
 H         -0.9698589774        1.9934044244       -0.0033852775
