  19
        -26.29540168
 C         -2.6542452399        1.1843860859       -0.0000175193
 C         -1.2790867895        0.5874675135        0.0000073206
 C         -0.1480987939        1.3934619772        0.0000340296
 C          1.1251251644        0.8440764940        0.0000483849
 C          2.3465583354        1.7137898394       -0.0000404910
 C          1.2628263187       -0.5374229875        0.0000272694
 C          0.1415239486       -1.3547498355       -0.0000018729
 O          0.2411942254       -2.7146191917       -0.0000117023
 C         -1.1274820784       -0.7901525753       -0.0000088526
 H         -2.6084681263        2.2703392551        0.0003840756
 H         -3.2079930030        0.8585451807        0.8793752944
 H         -3.2076536673        0.8591990991       -0.8798694431
 H         -0.2616372388        2.4680938247        0.0000563432
 H          2.0748146776        2.7660012957        0.0015818898
 H          2.9552815988        1.5136050040       -0.8811162564
 H          2.9571454221        1.5113047708        0.8792022694
 H          2.2514557788       -0.9796046723        0.0000369736
 H          1.1713447253       -2.9700631884       -0.0000249226
 H         -1.9861332119       -1.4430196017       -0.0000156727
