  24
        -37.21218673
 C          4.8362920094        1.3427515714       -0.1138035946
 C          4.5041569714        0.0573995528       -0.0223594020
 C          3.1606256621       -0.4460249096        0.0172052037
 C          2.7700816395       -1.7606443000        0.1048085890
 C          1.3828996012       -1.9366757029        0.1205230444
 C          0.6851552805       -0.7521478593        0.0453349461
 C         -0.7282226908       -0.5663001742        0.0359828051
 C         -1.7105027297       -1.5314119019        0.0804631483
 C         -3.0059955944       -1.0077201558        0.0542102103
 C         -3.0445816058        0.3649246786       -0.0101995459
 C         -4.1686209977        1.2594230970       -0.0530400340
 C         -5.4475686863        0.8894296180       -0.0398163129
 S         -1.4334074491        1.0190785243       -0.0393117875
 S          1.7734875539        0.6007772496       -0.0461983835
 H          5.8629591233        1.6616166795       -0.1401608137
 H          4.0849202867        2.1135393896       -0.1651477166
 H          5.2718472522       -0.7047871745        0.0278941560
 H          3.4728430482       -2.5738676772        0.1559020222
 H          0.9052854405       -2.8973523590        0.1856769784
 H         -1.4960039003       -2.5836401768        0.1290769628
 H         -3.8889702610       -1.6201311026        0.0815967744
 H         -3.9138655825        2.3103913646       -0.0993649606
 H         -5.7455111271       -0.1435900427        0.0052066802
 H         -6.2393514667        1.6164486203       -0.0741863903
