  19
        -35.16497575
 C         -0.3852904027       -2.8753156159        0.5327590391
 C         -1.3156264887       -2.1666344825       -0.0935627167
 C         -1.4026177868       -0.7095309554       -0.1096378854
 C         -2.6644043978       -0.1155506686       -0.0133799098
 N         -2.8768746847        1.1821018092        0.0457212230
 C         -1.8249362118        1.9841760520        0.0001567534
 C         -0.5267185938        1.5245355327       -0.1284840411
 C         -0.2920556743        0.1500653528       -0.1914884661
 C          1.0444289521       -0.3851146805       -0.4222007438
 C          2.1870746480        0.1813097167       -0.0690107326
 F          2.3508504383        1.3084888057        0.6120162016
 F          3.3800953245       -0.3451884981       -0.3320638365
 H         -0.4046875467       -3.9517408841        0.5317200083
 H          0.4079529994       -2.4130192278        1.0962411514
 H         -2.1319009250       -2.6750323401       -0.5918673728
 H         -3.5504968215       -0.7362902209        0.0320809302
 H         -2.0392670642        3.0428139261        0.0532871389
 H          0.2884952894        2.2254841049       -0.2021924723
 H          1.1152436291       -1.3333308756       -0.9345711918
  19
        -35.16488204
 C         -1.7743330007       -3.1618191821        0.2845832772
 C         -0.9790301087       -2.2181372078       -0.2009194400
 C         -1.2125284324       -0.7848613545       -0.0370290434
 C         -2.5114470322       -0.2729011680       -0.0672364738
 N         -2.8118071065        1.0051542959        0.0389545409
 C         -1.8175783493        1.8674932371        0.1720579472
 C         -0.4862044711        1.4910810222        0.2079419334
 C         -0.1601998122        0.1386153932        0.1078934832
 C          1.2163568871       -0.3343549802        0.2077126282
 C          2.3103881184        0.3573804385       -0.0709437198
 F          2.3887146062        1.5999495223       -0.5260412675
 F          3.5383631991       -0.1372049213        0.0537883402
 H         -1.5724192625       -4.2068633231        0.1242817909
 H         -2.6439568888       -2.9270265038        0.8750153546
 H         -0.1010708949       -2.4949680862       -0.7702942761
 H         -3.3524562963       -0.9398385715       -0.2031121489
 H         -2.1051378725        2.9065467698        0.2573423683
 H          0.2804115691        2.2373395020        0.3354565878
 H          1.3724135276       -1.3482461850        0.5431851865
  19
        -35.16392084
 C         -0.7987156460       -2.8302118662       -0.1116593544
 C         -0.3980104927       -1.7071495687        0.4677232318
 C         -0.9709055552       -0.3906509837        0.2102463401
 C         -2.3348663841       -0.2452555857       -0.0639932611
 N         -2.9428254465        0.9083024665       -0.2421301329
 C         -2.2255183415        2.0152276909       -0.1316629051
 C         -0.8716112321        2.0095160897        0.1496180192
 C         -0.2144139063        0.7890483362        0.3021638408
 C          1.2291828631        0.8042799377        0.5403969803
 C          2.1168812568        0.0101582716       -0.0341215738
 F          1.8843368758       -0.9347009488       -0.9333263475
 F          3.4256282004        0.0847289365        0.1931054324
 H         -0.3499446419       -3.7779480303        0.1293518020
 H         -1.5672679946       -2.8415462679       -0.8656598021
 H          0.4067270518       -1.7313224893        1.1926573107
 H         -2.9689973689       -1.1196124008       -0.1229211543
 H         -2.7651381601        2.9417509029       -0.2731575149
 H         -0.3216289993        2.9348722298        0.2282303970
 H          1.6165623330        1.5710217262        1.1950841653
  19
        -35.16261894
 C          0.0123295370       -2.5547475365       -0.1230117117
 C         -0.6234055157       -1.6962126967        0.6600831053
 C         -1.0721381699       -0.3674763577        0.2424009579
 C         -2.3723840820        0.0315312294        0.5663353330
 N         -2.9307408553        1.1563326700        0.1704191555
 C         -2.2170801615        1.9691730492       -0.5912291665
 C         -0.9102915752        1.7026826524       -0.9584753163
 C         -0.3049357812        0.5254977156       -0.5197027561
 C          1.1086449054        0.3152453273       -0.8450528323
 C          2.0331188830       -0.0851408438        0.0096683932
 F          1.8524332507       -0.3986801354        1.2845869156
 F          3.3201632488       -0.2162248590       -0.2980593987
 H          0.2783508343       -3.5394555343        0.2197960959
 H          0.2805369802       -2.3124780588       -1.1385844131
 H         -0.9141799990       -1.9858378301        1.6612802566
 H         -2.9976970601       -0.6123956437        1.1715696327
 H         -2.7147386544        2.8756063449       -0.9079766932
 H         -0.3529926676        2.4076897552       -1.5562223708
 H          1.4405257881        0.5881723741       -1.8355134809
