24
 energy: -46.369903414034 gnorm: 0.000081121415 xtb: 6.4.1 (23d549d)
C        -4.57409717990000   -0.55017012540000    0.45885702360000
C        -3.56428806160000   -1.09199589060000   -0.20903230090000
C        -2.18097833060000   -0.61994503650000   -0.19154808920000
C        -1.16636367630000   -1.57283918110000   -0.22256847830000
C         0.17115702730000   -1.22951628110000   -0.14289319620000
C         0.49862467590000    0.11155089240000   -0.04520226370000
O         1.81764963580000    0.60453027850000    0.04087350960000
C         2.83909550120000   -0.22059168430000    0.03108124480000
F         2.94460425750000   -0.96614263070000   -1.08533805090000
F         3.96354413860000    0.48378657330000    0.12253514220000
F         2.85598315700000   -1.10151288810000    1.04952315590000
C        -0.48455101310000    1.08452360610000   -0.04577794010000
C        -1.83063995540000    0.74151647120000   -0.11968395690000
C        -2.83742469470000    1.79899932890000   -0.19796561940000
C        -2.75680463810000    2.96762950490000    0.42321934170000
H        -5.56393802400000   -0.97222158940000    0.41837285080000
H        -4.44594328270000    0.31344740310000    1.08909286740000
H        -3.72802347870000   -1.99657289240000   -0.78209825800000
H        -1.43076314180000   -2.61750360860000   -0.29340902420000
H         0.92039574170000   -2.00409290180000   -0.16226821010000
H        -0.18513818500000    2.11903377990000   -0.01093349790000
H        -3.69363864660000    1.57586990520000   -0.82152166370000
H        -1.94202139920000    3.20938370690000    1.08494840820000
H        -3.51877298620000    3.71951997920000    0.31078596750000
