20
 energy: -34.894227070997 gnorm: 0.000035046936 xtb: 6.4.1 (23d549d)
C         4.06453104920000   -0.35340816840000   -0.02420755590000
C         3.11817824640000    0.57867700010000   -0.02277480800000
C         1.68027676850000    0.35391670700000   -0.00756960150000
C         0.82072880390000    1.45359300490000   -0.00716502050000
C        -0.54279119030000    1.26676243700000    0.00784403910000
F        -1.32453051430000    2.36719725280000    0.00752038030000
C        -1.16011651370000    0.00880632150000    0.01850320970000
C        -2.61312688810000   -0.07727906520000    0.03501960410000
C        -3.35750843580000   -1.17017809100000   -0.09550926370000
C        -0.26446869860000   -1.06702378380000    0.02101286100000
F        -0.73259245780000   -2.33139943610000    0.04648612000000
C         1.10521099760000   -0.91657143140000    0.00902278940000
H         5.10730043190000   -0.08783431800000   -0.03612719010000
H         3.84756672740000   -1.40738787520000   -0.01372885120000
H         3.40771685750000    1.62177344000000   -0.03387651000000
H         1.20938347810000    2.46016697870000   -0.01775507500000
H        -3.10349118410000    0.88005920100000    0.15689957710000
H        -2.94851317520000   -2.15433070550000   -0.23375677390000
H        -4.43183339500000   -1.10247066720000   -0.06960749700000
H         1.71365153420000   -1.80585923050000    0.01436954450000
