  25
        -40.15991975
 C         -3.9384024735       -1.6949178265       -0.4812105645
 C         -3.6066417460       -0.5084749390        0.0143031782
 C         -2.2611113406        0.0383683695        0.0973154706
 C         -2.0703798463        1.3632068561        0.5074961784
 N         -0.9023164894        1.9623033299        0.5537339379
 C          0.1984996097        1.2910502944        0.2260377138
 C          1.4257300495        2.0786613774        0.1832456373
 C          2.4259357325        1.8731561033       -0.6627707628
 C          0.1387034501       -0.0784448997       -0.0902173975
 C          1.3479204731       -0.9210935703       -0.2875196282
 O          1.5140801622       -1.6779285702       -1.2104977478
 O          2.2048497103       -0.7834403909        0.7331794804
 C          3.4044543848       -1.5386481304        0.6576989118
 C         -1.1032838843       -0.6883115997       -0.1811861264
 H         -4.9635193015       -2.0214764201       -0.5105570559
 H         -3.2122045595       -2.3814700601       -0.8815156196
 H         -4.3819628865        0.1485520618        0.3888015567
 H         -2.9154361250        1.9741245796        0.8014383928
 H          1.4339344704        2.9245177711        0.8563082052
 H          2.4094841973        1.0769876019       -1.3897344184
 H          3.2945546943        2.5092153565       -0.6726624134
 H          3.8230943859       -1.5517870415        1.6607347387
 H          4.1011911910       -1.0638550576       -0.0366988632
 H          3.1938863150       -2.5527511851        0.3117208272
 H         -1.1507560915       -1.7339020237       -0.4457892226
