  26
        -37.09854296
 C          3.5504568294       -0.5014811183       -0.0726862330
 C          2.3153874917       -0.8100998224       -0.4442500363
 C          1.1293360152        0.0147120685       -0.2240289376
 C          1.2171851475        1.3945318977       -0.0878579706
 C          0.0814136022        2.1699992364        0.1237168120
 N          0.1886600573        3.5313584181        0.3398451938
 C         -1.1562020560        1.5378167779        0.1858788280
 C         -1.2853745255        0.1607897681        0.0271641351
 C         -2.6304654784       -0.4105541053        0.0865959704
 C         -3.0411778286       -1.5176513490       -0.5171283662
 C         -0.1293825808       -0.6031993772       -0.1770914998
 O         -0.2030649858       -1.9838410728       -0.3097108996
 C         -0.0753394550       -2.6715412757        0.9141837160
 H          4.3781021526       -1.1620876214       -0.2676927532
 H          3.7854897537        0.4109805772        0.4495976739
 H          2.1206770639       -1.7553521420       -0.9344468609
 H          2.1804472068        1.8770441485       -0.1594484225
 H          1.0296610512        3.9672174503       -0.0028009991
 H         -0.6483049084        4.0705087852        0.1867572274
 H         -2.0444431994        2.1337713770        0.3446162751
 H         -3.3388168433        0.1792869072        0.6579738976
 H         -2.3805626897       -2.1168714238       -1.1178996327
 H         -4.0604042367       -1.8565818814       -0.4287252705
 H         -0.1321108188       -3.7331382557        0.6781948495
 H         -0.8858731848       -2.4072470891        1.6030394931
 H          0.8857437335       -2.4537259443        1.3950039988
