  26
        -41.83267068
 C          4.4907238896        1.1067149016        0.1247492723
 C          3.3164376420        1.7123937168       -0.0272039666
 C          2.0489522979        1.0295114027       -0.0537654307
 C          0.7803357667        1.5289408681       -0.2032631758
 C         -0.0995043655        0.4191170167       -0.1577999252
 C         -1.5542743494        0.5442080161       -0.2798916287
 O         -2.1252057616        1.6022021973       -0.3932452067
 O         -2.1872305244       -0.6415477495       -0.2652696986
 C         -3.6109727624       -0.6076834382       -0.3605462785
 C         -4.2544530281       -0.3622469555        0.9968560735
 C          0.7062520991       -0.7002229949        0.0211862846
 C          0.3747855065       -2.0944392091        0.1454470981
 C          1.2817775349       -3.0544603904        0.3166029133
 O          1.9939425608       -0.3177863827        0.0821280698
 H          5.4134764610        1.6587609818        0.1383710202
 H          4.5576815949        0.0384151447        0.2397883824
 H          3.2485135755        2.7847129237       -0.1427867047
 H          0.4903712932        2.5510787581       -0.3315758927
 H         -3.8914293595       -1.5849218527       -0.7597731048
 H         -3.9006170740        0.1802865897       -1.0635613801
 H         -3.9285739150       -1.1155265215        1.7104343586
 H         -5.3355494913       -0.4061239908        0.9009282649
 H         -3.9729306871        0.6205419791        1.3667840193
 H         -0.6792447539       -2.3158952517        0.0888594530
 H          2.3335737756       -2.8302611178        0.3708670112
 H          0.9971078510       -4.0877039071        0.4062033324
