  26
        -48.71743884
 C          0.1922618936       -3.7841705415        0.3243091590
 C          0.9449516728       -2.8515072632       -0.2425781927
 C          0.7027044977       -1.4122387923       -0.1298390529
 C         -0.5890924152       -0.9431975331       -0.1162557665
 C         -0.8962085122        0.4314645483       -0.0479009019
 C         -2.2508222496        0.9561132994       -0.0350624224
 C         -3.3906419529        0.2822527293        0.0012493240
 F         -3.5646100262       -1.0340908741        0.0357747046
 F         -4.5825707611        0.8730836352        0.0123074847
 C          0.1637497672        1.3151861638       -0.0066927993
 F         -0.0853305077        2.6436255516        0.0430753347
 C          1.5091436249        0.9010622058       -0.0082938530
 C          2.5687498046        1.8311870641        0.0530199549
 C          3.8654677628        1.4022150069        0.0743475995
 C          4.1502350746        0.0301810393        0.0439212087
 C          3.1399684822       -0.8912471522       -0.0196299282
 C          1.7893370867       -0.4910891192       -0.0623864512
 H          0.4011369043       -4.8323300707        0.1964337852
 H         -0.6485924865       -3.5379520294        0.9506442931
 H          1.7964898387       -3.1451272041       -0.8414091705
 H         -1.3953826657       -1.6532283163       -0.1879719603
 H         -2.3490123677        2.0321939486       -0.0478482181
 H          2.3318991159        2.8838689633        0.0878448351
 H          4.6749323032        2.1149097740        0.1217597175
 H          5.1786115900       -0.2982355122        0.0748512828
 H          3.3802821813       -1.9427620637       -0.0253551902
