  41
        -49.69979770
 C         -1.7493513803        0.3349313397        3.3830019412
 C         -1.8165122132       -0.6275441396        2.4661278616
 C         -1.6188342722       -0.4420946585        1.0532153938
 C         -1.2018078292        0.6620412547        0.3586249840
 C         -1.1251153406        0.4785713026       -1.0382193999
 C         -0.5515091317        1.5276306460       -1.9415781169
 C          0.8836640658        1.8715318316       -1.5231818619
 C          1.8136779700        0.6732915000       -1.7017131566
 C          3.1914267709        0.8708258034       -1.0688288742
 C          3.1813637381        0.9803583231        0.4580267349
 C          2.5894272825       -0.2477817291        1.1483619176
 C          2.8115234574       -0.2481836533        2.6611733823
 C          2.0116354341        0.8318393273        3.3797403320
 C         -1.5098351665       -0.7862659364       -1.4200199253
 C         -1.6271013580       -1.3954264771       -2.7251490134
 C         -2.0200006190       -0.7832817918       -3.8372913269
 S         -1.9189309311       -1.7626930375       -0.0360106693
 H         -1.9000746559        0.1242120049        4.4268612413
 H         -1.5518465741        1.3612337891        3.1249554223
 H         -2.0377262438       -1.6432433756        2.7675552729
 H         -0.9513614127        1.5908160430        0.8392323449
 H         -1.1702795903        2.4278967365       -1.8928623764
 H         -0.5418733469        1.1705256720       -2.9706207646
 H          0.8856963849        2.1877115204       -0.4806389220
 H          1.2447029085        2.7079997068       -2.1258736025
 H          1.9421094359        0.4834461153       -2.7706332024
 H          1.3456928764       -0.2134557374       -1.2725523787
 H          3.6469821364        1.7748123777       -1.4818265229
 H          3.8234069746        0.0252499309       -1.3522099820
 H          2.6310961448        1.8725436973        0.7577807101
 H          4.2138782307        1.1086403141        0.7941228627
 H          3.0519004346       -1.1432990838        0.7252891505
 H          1.5163029919       -0.3023118034        0.9563092513
 H          3.8755582699       -0.1157819622        2.8719647444
 H          2.5151213665       -1.2228661360        3.0563671102
 H          2.3223654579        1.8241082523        3.0626363245
 H          2.1591280416        0.7594328122        4.4551299781
 H          0.9499929648        0.7137456016        3.1719841144
 H         -1.4164622778       -2.4580079904       -2.7484847046
 H         -2.3089180707        0.2532532577       -3.8549447118
 H         -2.0872224042       -1.3153167674       -4.7704884863
