41
 energy: -49.699797703231 gnorm: 0.000060315128 xtb: 6.4.1 (23d549d)
C        -1.74935138030000    0.33493133970000    3.38300194120000
C        -1.81651221320000   -0.62754413960000    2.46612786160000
C        -1.61883427220000   -0.44209465850000    1.05321539380000
C        -1.20180782920000    0.66204125470000    0.35862498400000
C        -1.12511534060000    0.47857130260000   -1.03821939990000
C        -0.55150913170000    1.52763064600000   -1.94157811690000
C         0.88366406580000    1.87153183160000   -1.52318186190000
C         1.81367797000000    0.67329150000000   -1.70171315660000
C         3.19142677090000    0.87082580340000   -1.06882887420000
C         3.18136373810000    0.98035832310000    0.45802673490000
C         2.58942728250000   -0.24778172910000    1.14836191760000
C         2.81152345740000   -0.24818365330000    2.66117338230000
C         2.01163543410000    0.83183932730000    3.37974033200000
C        -1.50983516650000   -0.78626593640000   -1.42001992530000
C        -1.62710135800000   -1.39542647710000   -2.72514901340000
C        -2.02000061900000   -0.78328179180000   -3.83729132690000
S        -1.91893093110000   -1.76269303750000   -0.03601066930000
H        -1.90007465590000    0.12421200490000    4.42686124130000
H        -1.55184657410000    1.36123378910000    3.12495542230000
H        -2.03772624380000   -1.64324337560000    2.76755527290000
H        -0.95136141270000    1.59081604300000    0.83923234490000
H        -1.17027959030000    2.42789673650000   -1.89286237640000
H        -0.54187334690000    1.17052567200000   -2.97062076460000
H         0.88569638490000    2.18771152040000   -0.48063892200000
H         1.24470290850000    2.70799970680000   -2.12587360250000
H         1.94210943590000    0.48344611530000   -2.77063320240000
H         1.34569287640000   -0.21345573740000   -1.27255237870000
H         3.64698213640000    1.77481237770000   -1.48182652290000
H         3.82340697460000    0.02524993090000   -1.35220998200000
H         2.63109614480000    1.87254369730000    0.75778071010000
H         4.21387823070000    1.10864031410000    0.79412286270000
H         3.05190043460000   -1.14329908380000    0.72528915050000
H         1.51630299190000   -0.30231180340000    0.95630925130000
H         3.87555826990000   -0.11578196220000    2.87196474440000
H         2.51512136650000   -1.22286613600000    3.05636711020000
H         2.32236545790000    1.82410825230000    3.06263632450000
H         2.15912804160000    0.75943281220000    4.45512997810000
H         0.94999296480000    0.71374560160000    3.17198411440000
H        -1.41646227780000   -2.45800799040000   -2.74848470460000
H        -2.30891807070000    0.25325325770000   -3.85494471180000
H        -2.08722240420000   -1.31531676740000   -4.77048848630000
