  22
        -36.99087794
 C         -4.2146164112       -0.2641730750       -0.1395140606
 C         -3.3154119706        0.6912963067        0.0616014092
 C         -1.8662325747        0.5325198701        0.0520515746
 C         -1.2161860808       -0.6900831132       -0.1089415642
 C          0.1741333719       -0.7537916206       -0.1222904690
 C          0.8667986071       -2.0241785101       -0.3118116593
 C          0.4062068310       -3.1894954994        0.1234552638
 C          0.8779001201        0.4590269353        0.0136057866
 C          2.3645492090        0.5013021346        0.0425555486
 O          3.0526717279       -0.3697901753        0.4989534132
 O          2.9252656459        1.6106856264       -0.4802620388
 C          0.1315591228        1.6239396191        0.1997864402
 N         -1.1804913325        1.6678407624        0.2182009501
 H         -5.2691769249       -0.0502702784       -0.1143375224
 H         -3.9473020408       -1.2882108619       -0.3387747760
 H         -3.6299876337        1.7084959792        0.2504828504
 H         -1.7864867252       -1.5945126234       -0.2419515044
 H          1.8259123622       -1.9743840708       -0.8062412113
 H         -0.5143702513       -3.2757648888        0.6773189073
 H          0.9556063451       -4.1013893128       -0.0317704591
 H          2.2739483249        2.2264443558       -0.8415571392
 H          0.6173832145        2.5785484938        0.3760691300
