  40
        -55.55573882
 C         -5.3187606722        2.3469599560        0.7635301465
 C         -4.3854286133        1.2185489890        0.4430238488
 C         -4.5617254155        0.4787815837       -0.7221469898
 C         -3.7165762815       -0.5724620412       -1.0311632665
 C         -3.9270316433       -1.3847582937       -2.2746578607
 C         -2.6736602111       -0.8916209167       -0.1678383014
 C         -2.4829289288       -0.1635253111        0.9979763104
 O         -1.5098528201       -0.3919216151        1.9290292769
 C         -0.5169125316       -1.3610437904        1.6811314738
 C          0.5458303592       -0.8709113463        0.6937482782
 C          1.6206325184       -1.9295576484        0.4616862121
 C          2.6424169597       -1.5266141007       -0.6022521362
 C          3.5458360401       -0.3776299809       -0.1582953013
 C          4.6114335329       -0.0679460976       -1.2174196778
 C          5.4903777862        1.0827738755       -0.7664280878
 O          6.6246702162        0.9642647826       -0.4088147488
 O          4.8913316251        2.2884885966       -0.7736668144
 C         -3.3468019256        0.8916490699        1.2934532160
 H         -6.3197297200        1.9624400078        0.9573216385
 H         -5.3850374886        3.0372064476       -0.0759833738
 H         -4.9828212067        2.8928700536        1.6409353075
 H         -5.3705623796        0.7301146569       -1.3931060363
 H         -4.4600742151       -0.8099318764       -3.0279634226
 H         -4.5195994783       -2.2706853386       -2.0438778807
 H         -2.9777454923       -1.7162375440       -2.6903549491
 H         -2.0286609132       -1.7174122451       -0.4261711139
 H         -0.9633062195       -2.3023607061        1.3360315790
 H         -0.0568054008       -1.5414045804        2.6571871634
 H          0.9851463449        0.0407141131        1.1010942874
 H          0.0663437123       -0.6160853677       -0.2541589193
 H          1.1365924520       -2.8563189597        0.1438651764
 H          2.1380152727       -2.1348251499        1.4010506008
 H          2.1173240862       -1.2443759418       -1.5181536782
 H          3.2669345409       -2.3922197563       -0.8327995937
 H          4.0434376113       -0.6478482744        0.7750466219
 H          2.9403431983        0.5113437396        0.0322530440
 H          4.1324318967        0.1854282097       -2.1674573145
 H          5.2454683059       -0.9417244408       -1.3686202186
 H          3.9778069227        2.2440746936       -1.0853853942
 H         -3.1805470187        1.4426622365        2.2060212656
