  37
        -49.82738412
 C          5.9167986607        0.3579803307        0.0056148760
 C          4.8290854889       -0.4044395757       -0.0084890009
 C          3.4428190011        0.0420471472       -0.0063187760
 C          3.0826169809        1.3927669119       -0.0079695203
 C          1.7590933150        1.7880404912       -0.0053207914
 C          0.7679965921        0.8182918939       -0.0008630060
 C          1.1123373117       -0.5421720943        0.0003519260
 C          2.4312941665       -0.9272698488       -0.0027499177
 C         -0.1281682088       -1.4079098297        0.0047171444
 C         -0.1910824444       -2.2759735187        1.2651202845
 C         -0.1968597065       -2.2809289395       -1.2519339318
 C         -1.2244552932       -0.3649351697        0.0048516225
 C         -2.5851328869       -0.5534413166        0.0069589330
 C         -3.4381488029        0.5570216266        0.0061012431
 C         -4.8891209605        0.4327059333        0.0062505293
 C         -5.5951091494       -0.6921372990       -0.0258835223
 C         -2.8776229856        1.8383691973        0.0053230946
 C         -1.5102396887        2.0363861079        0.0027380465
 C         -0.6776259133        0.9284211259        0.0020606025
 H          6.9024144709       -0.0751790506        0.0024833122
 H          5.8776116174        1.4335079648        0.0211092404
 H          4.9511891106       -1.4813711571       -0.0217732822
 H          3.8537265170        2.1474519163       -0.0121386544
 H          1.5024676208        2.8372732349       -0.0067169114
 H          2.7002578953       -1.9746978381       -0.0018757010
 H          0.6421619835       -2.9746343068        1.2850000962
 H         -1.1198793099       -2.8412267765        1.2891246941
 H         -0.1418474712       -1.6510549266        2.1544305625
 H          0.6361433219       -2.9798218404       -1.2727748369
 H         -0.1515151752       -1.6595068200       -2.1439015275
 H         -1.1258407575       -2.8461168713       -1.2695431571
 H         -2.9963521518       -1.5510982688        0.0108292661
 H         -5.4193387791        1.3775016776        0.0331012471
 H         -5.1412908016       -1.6677714681       -0.0570291821
 H         -6.6715478819       -0.6765329111       -0.0240190664
 H         -3.5369961524        2.6953673159        0.0056052698
 H         -1.1007022346        3.0357927150        0.0014171449
  37
        -49.82730322
 C          5.9090491272        0.5579380749        0.0034071629
 C          4.8621299490       -0.2596158638       -0.0072705717
 C          3.4546730402        0.1146941215       -0.0050212661
 C          3.0253039423        1.4450361316       -0.0077972351
 C          1.6831700913        1.7715749934       -0.0060745664
 C          0.7434024304        0.7520294516       -0.0014597439
 C          1.1574468609       -0.5889340426        0.0014230728
 C          2.4944933636       -0.9055222048       -0.0006387345
 C         -0.0368558354       -1.5174928599        0.0059455911
 C         -0.0568212217       -2.3855258091        1.2678204775
 C         -0.0592876355       -2.3951434325       -1.2491329677
 C         -1.1846770175       -0.5320465299        0.0038642783
 C         -2.5355187108       -0.7833475717        0.0058073980
 C         -3.4450386104        0.2822822639        0.0031322861
 C         -4.8690146611       -0.0232391473        0.0040318627
 C         -5.8749390846        0.8440502183       -0.0182163417
 C         -2.9515993722        1.5902118718        0.0002119488
 C         -1.5951937481        1.8512063455       -0.0012700341
 C         -0.7060258554        0.7872347575        0.0001110839
 H          6.9157030729        0.1762015734        0.0008382367
 H          5.8144647409        1.6300293574        0.0157079922
 H          5.0397402999       -1.3288239619       -0.0177341373
 H          3.7565141592        2.2384423058       -0.0123621864
 H          1.3727817167        2.8061681019       -0.0086577887
 H          2.8171382679       -1.9376803160        0.0013240825
 H          0.8117616864       -3.0396200606        1.2905576960
 H         -0.9548556160       -2.9985544930        1.2907830592
 H         -0.0421006895       -1.7573578375        2.1561070387
 H          0.8078658486       -3.0512804614       -1.2671528091
 H         -0.0435990902       -1.7739116244       -2.1422643398
 H         -0.9586142230       -3.0064388284       -1.2670029914
 H         -2.9078917629       -1.7986226969        0.0086765108
 H         -5.0983752388       -1.0824210408        0.0235884863
 H         -5.7283250407        1.9101092871       -0.0402687595
 H         -6.8989610551        0.5117082304       -0.0156194246
 H         -3.6434419656        2.4181839681        0.0001687329
 H         -1.2349477766        2.8695133822       -0.0032674552
