  20
        -39.12609834
 C         -3.9514639860        2.3922416905       -0.0435387146
 C         -2.6263559440        2.3715321238        0.0310529371
 C         -1.7740887057        1.1876650792        0.0191983234
 C         -2.2867078397       -0.1098936872        0.0103515559
 C         -1.4102431886       -1.1756564541       -0.0012905850
 F         -1.9167982427       -2.4257246881       -0.0087307426
 C         -0.0374051038       -1.0218639596       -0.0047038035
 C          0.4875515427        0.2708150364        0.0057242732
 C          1.9155030900        0.5489281799        0.0048240005
 C          2.9209578781       -0.3141444240       -0.0029313992
 F          2.8609001601       -1.6380268684       -0.0118987067
 F          4.1972914764        0.0604838547       -0.0025826119
 C         -0.3906641078        1.3538025631        0.0188342751
 H         -4.4959085193        3.3205097880       -0.0292271802
 H         -4.5472479514        1.4997071898       -0.1245791698
 H         -2.0896693588        3.3092314787        0.1029416071
 H         -3.3467458027       -0.3008857987        0.0165958791
 H          0.5883309439       -1.8977073546       -0.0139335221
 H          2.2042525551        1.5898601075        0.0115696907
 H          0.0146299650        2.3552937590        0.0270374358
