  17
        -32.83128652
 C          0.5283273657       -2.5643314229        0.1678646461
 C          1.0897373837       -1.6107017877       -0.5612208698
 C          1.1052388670       -0.1953027362       -0.2132279869
 C          2.2029378161        0.5854027924       -0.4322865715
 S          2.0366660082        2.1754900358        0.1893432462
 C          0.4583457060        1.8156012691        0.7480953894
 C          0.0717907341        0.5378502691        0.4597422821
 C         -1.2722600094        0.0679439205        0.7692873208
 C         -2.0306584980       -0.6584099348       -0.0341246953
 F         -1.7179784372       -1.1020988817       -1.2440813902
 F         -3.2666252522       -1.0492984327        0.2717255196
 H          0.5776590418       -3.5977251487       -0.1276532892
 H          0.0065624017       -2.3532355560        1.0864865022
 H          1.6402494741       -1.8663325846       -1.4569841225
 H          3.1225729444        0.2964485378       -0.9013410927
 H         -0.1205874402        2.5772350927        1.2319428630
 H         -1.7154116016        0.3920759574        1.6988138433
