  27
        -36.83394572
 C         -3.6436497619       -0.3844214956        0.1969095946
 C         -2.4658135490       -0.7717643435       -0.2740447900
 C         -1.2186716294       -0.0181166564       -0.1753518467
 C         -1.1983755870        1.3655009736       -0.0183891947
 C         -0.0070718705        2.0692609032        0.0629277667
 C         -0.0112602662        3.5626955756        0.1989619367
 C          1.1886450340        1.3727743668       -0.0179355582
 C          1.2174739744       -0.0105216782       -0.1755742283
 C          2.4692739032       -0.7562416047       -0.2758378170
 C          3.6444908632       -0.3627683544        0.1963377332
 C          0.0015308290       -0.7004795833       -0.2629173495
 O          0.0057679203       -2.0775111254       -0.4325375157
 C          0.0148180113       -2.7965460717        0.7805141399
 H         -4.5216937118       -0.9977152948        0.0868141668
 H         -3.7803952138        0.5486246116        0.7175894871
 H         -2.3708685068       -1.7333370324       -0.7620411148
 H         -2.1340837298        1.9028603692        0.0205176571
 H         -0.9017607445        3.9023906734        0.7225164825
 H         -0.0031823425        4.0255877254       -0.7883170169
 H          0.8685553225        3.9057708301        0.7382424250
 H          2.1209584199        1.9160535248        0.0200020837
 H          2.3804389528       -1.7173252508       -0.7659849576
 H          3.7751614857        0.5697959214        0.7194371799
 H          4.5263535127       -0.9703199882        0.0851368464
 H         -0.8764406038       -2.5763351749        1.3798280188
 H          0.9073062014       -2.5648972641        1.3735817997
 H          0.0206957381       -3.8515901722        0.5111594156
