47
 energy: -56.031516086615 gnorm: 0.000061040877 xtb: 6.4.1 (23d549d)
C         4.27439393400000   -3.91620812200000    0.12975266500000
C         4.21102719660000   -2.72651550220000   -0.46191265420000
C         3.42080879690000   -1.61806477150000   -0.00367901180000
C         3.32354946340000   -0.37818978480000   -0.57904926960000
C         2.46891396630000    0.51233764320000    0.09936040080000
C         2.20618768840000    1.89364922570000   -0.41443056980000
C         1.19746852720000    1.87340467540000   -1.57328582990000
C        -0.20529805310000    1.43349582690000   -1.15215978460000
C        -0.97771912340000    2.53093259320000   -0.42099067520000
C        -2.25786428930000    2.02149967100000    0.24139420780000
C        -3.31829188750000    1.57256393320000   -0.76150892610000
C        -4.60358026910000    1.13504961720000   -0.06262490070000
C        -5.75142848360000    0.83835957630000   -1.02920643910000
C        -5.48774357450000   -0.29891076860000   -2.01764626130000
C        -5.24813817420000   -1.64273630610000   -1.33983183350000
C         1.89669299080000   -0.06012888160000    1.21566931190000
C         0.98120854980000    0.53025787590000    2.15294288480000
C         0.40887031760000   -0.11117152580000    3.16849163710000
S         2.43058379370000   -1.70743047520000    1.42039427710000
H         4.88507238850000   -4.71103193120000   -0.26003551620000
H         3.71310505760000   -4.12691603580000    1.02514429510000
H         4.78136750640000   -2.53078590980000   -1.36162809560000
H         3.86079995630000   -0.10879603030000   -1.47244556680000
H         3.14650004960000    2.31311388560000   -0.78108944810000
H         1.84388808650000    2.54026952610000    0.38404150410000
H         1.57015678680000    1.18876681480000   -2.33870347590000
H         1.14523076670000    2.87101380390000   -2.01539862290000
H        -0.12813669780000    0.55369531110000   -0.50969656070000
H        -0.75977457430000    1.14243733150000   -2.04596659350000
H        -1.22588048590000    3.32903961490000   -1.12519332740000
H        -0.34279723060000    2.96739625760000    0.35254880320000
H        -2.67515107140000    2.82124713220000    0.85931009000000
H        -2.00999162870000    1.18866080380000    0.90459697510000
H        -2.92651407230000    0.74477741510000   -1.35221186880000
H        -3.54126964370000    2.39782544530000   -1.44266929970000
H        -4.92688913500000    1.93323724090000    0.61123633580000
H        -4.40018145460000    0.25661741180000    0.55199514680000
H        -5.97337540030000    1.74567574260000   -1.59725947410000
H        -6.64109951190000    0.59183092900000   -0.44380001950000
H        -4.63130032620000   -0.05017245410000   -2.64644759100000
H        -6.35768741030000   -0.38485739790000   -2.67388864840000
H        -4.32633927310000   -1.63170723570000   -0.76424731540000
H        -5.17143750170000   -2.43220685330000   -2.08439501000000
H        -6.07086169920000   -1.88275487690000   -0.66947948750000
H         0.75877537440000    1.57561297710000    1.98884416810000
H         0.60295652630000   -1.15401472000000    3.35785213790000
H        -0.26934791320000    0.38614173900000    3.83913025170000
