  27
        -49.33927628
 C         -3.3318584851       -2.0108760505        0.8729683815
 C         -3.1406719149       -0.9160913297        0.1495490867
 C         -1.8943838216       -0.1507075618        0.0786382596
 C         -1.9861226211        1.2290860065       -0.0965897669
 C         -0.8464397494        2.0109936791       -0.1167808560
 Cl        -0.9915461424        3.7207235983       -0.3186489432
 C          0.4083111148        1.4487142991        0.0264598256
 C          0.5319083423        0.0677443442        0.1701797916
 C          1.8151583218       -0.6008403619        0.3171794323
 C          3.0294347392       -0.0888326333        0.1916241580
 F          3.3658066857        1.1598793275       -0.1064482103
 F          4.1389766144       -0.8071728314        0.3469829470
 C         -0.6247174394       -0.7338204886        0.1915549840
 O         -0.4739948492       -2.0959742288        0.3212522249
 C         -0.6168921022       -2.8203970735       -0.8957580277
 C         -0.5157607495       -4.3023450736       -0.5795678576
 H         -4.2889847606       -2.5039947418        0.8985567053
 H         -2.5457331483       -2.4437683421        1.4666094224
 H         -3.9646824171       -0.4861773020       -0.4070476486
 H         -2.9568824507        1.6897837105       -0.1961164663
 H          1.2785505672        2.0826427603        0.0211331464
 H          1.7675709947       -1.6526929685        0.5595516013
 H          0.1784872381       -2.5196133185       -1.5940093743
 H         -1.5861069446       -2.5904650239       -1.3576233746
 H          0.4348557925       -4.5179059588       -0.0993668862
 H         -0.5905368813       -4.8793261941       -1.4966671605
 H         -1.3178185862       -4.5947290036        0.0922208622
