  25
        -42.11104813
 C         -3.9561742180       -2.2133922747       -0.1375945603
 C         -2.6353633386       -2.3055958850       -0.0228247964
 C         -1.7553829677       -1.1667379410        0.0059427381
 N         -0.4616644015       -1.2101433662        0.1172240979
 C         -0.0359951599        0.0857414553        0.1010853480
 C          1.3984032897        0.3886797379        0.2096487377
 O          1.8834200630        1.4977752643        0.1901011163
 O          2.1069901023       -0.7283726536        0.3456646157
 C          3.5221764925       -0.5890536658        0.4448617798
 C          4.1659110502       -0.4591839053       -0.9289055269
 C         -1.1505281025        0.9103353388       -0.0271374769
 C         -1.4140101607        2.3224360812       -0.1065022810
 C         -0.5075784007        3.2950433768       -0.0730235752
 O         -2.2298076521        0.0963380394       -0.0850683952
 H         -4.5818368702       -3.0879652918       -0.1552654162
 H         -4.4476127980       -1.2582411032       -0.2170727446
 H         -2.1249691211       -3.2530600343        0.0580935538
 H          3.8591697764       -1.4949548038        0.9526063394
 H          3.7536772886        0.2911447552        1.0547112900
 H          3.8903480448       -1.3063508077       -1.5521135329
 H          5.2467656164       -0.4290710586       -0.8245359067
 H          3.8324992412        0.4571441825       -1.4098764926
 H         -2.4692526055        2.5473994463       -0.2018295980
 H          0.5428021626        3.0850251475        0.0208133543
 H         -0.8081061961        4.3264623765       -0.1399920444
