  40
        -69.08649836
 C          0.8936489173        4.6504607765       -0.3260097643
 O          2.2154368312        4.1914937491       -0.1927245225
 C          2.4351225481        2.8495357644       -0.0978103497
 C          3.7834666758        2.4783016914        0.0323797335
 C          4.1556495851        1.1576673263        0.1181958872
 C          1.4341896833        1.8893123211       -0.1256985863
 C          1.8150005288        0.5586612819       -0.0108279685
 C          3.1689751758        0.1783239351        0.0927934913
 C          3.1915844664       -1.2565465330        0.1344284947
 C          4.2101233996       -2.1928616567        0.2509397929
 C          3.8767256892       -3.5324456233        0.2861498806
 C          2.5472642885       -3.9414423482        0.2242767163
 C          1.5160493312       -3.0276468246        0.1083418042
 C          1.8469942714       -1.6829203401        0.0444673891
 N          1.0227008100       -0.5733880090       -0.0410537497
 C         -0.3695811192       -0.5963646307       -0.1409885925
 C         -0.9976130990       -1.4185456842       -1.0753493722
 C         -2.3723942116       -1.4369276535       -1.1677007230
 C         -3.1648629508       -0.6337155677       -0.3426462027
 C         -4.6070166308       -0.7011662642       -0.5012529123
 C         -5.5414405348       -0.0142590940        0.1403030423
 F         -5.3787675242        0.9056843198        1.0844656232
 F         -6.8439162412       -0.1634435640       -0.0952684342
 C         -2.5270749983        0.1876355963        0.5903450754
 C         -1.1519709571        0.2022218500        0.6919561330
 H          0.9620423980        5.7359206937       -0.3780788397
 H          0.2800700722        4.3687212977        0.5362578990
 H          0.4260943813        4.2740356314       -1.2420031990
 H          4.5173453723        3.2678313564        0.0507777354
 H          5.1962007063        0.8844526370        0.2002001366
 H          0.3958748417        2.1515492197       -0.2480649184
 H          5.2393172264       -1.8743951686        0.3177219156
 H          4.6541589086       -4.2767435209        0.3736209882
 H          2.3150777576       -4.9950857382        0.2720043845
 H          0.4877196622       -3.3554732145        0.0825057653
 H         -0.3989296601       -2.0261209412       -1.7367741870
 H         -2.8463150927       -2.0757234029       -1.8984932189
 H         -4.9783661826       -1.3982869659       -1.2386887650
 H         -3.1049722463        0.8117320540        1.2518305043
 H         -0.6723944133        0.8195932266        1.4363638309
