  17
        -24.37993541
 C          3.2868136830       -0.7172815892        0.0073518089
 C          1.9896984770       -1.0092550682       -0.0069837368
 C          0.9091191945       -0.0454637138       -0.0029567953
 C          1.0970399104        1.3646682990       -0.0028871900
 C         -0.0625313325        2.0612330436       -0.0007636263
 S         -1.4407742855        1.0357110086        0.0017557129
 C         -0.4346034080       -0.3849225502       -0.0006051504
 C         -1.0299896717       -1.6922325219        0.0017085529
 C         -2.3392483181       -1.9319745521        0.0002481788
 H          4.0321266348       -1.4938228940        0.0024280127
 H          3.6575832595        0.2927435091        0.0252029915
 H          1.6930974913       -2.0491190668       -0.0233240857
 H          2.0622064085        1.8367097679       -0.0056539212
 H         -0.2009846691        3.1243760078       -0.0007455160
 H         -0.3377715424       -2.5233727737        0.0051803218
 H         -3.0597505699       -1.1308090992       -0.0029187380
 H         -2.7288744161       -2.9344151348        0.0022330682
  17
        -24.37853492
 C          2.4578081626       -1.7041286233        0.3262466427
 C          2.2170959527       -0.5414787194       -0.2666196638
 C          0.9889233015        0.2288392676       -0.1619613627
 C          1.0055412586        1.6493831336       -0.1315672688
 C         -0.2243553047        2.1960808012        0.0162866707
 S         -1.4587457553        1.0040923830        0.1008037373
 C         -0.2913545979       -0.2788215750       -0.0584937558
 C         -0.7176225336       -1.6483128432       -0.1577449512
 C         -1.9356346868       -2.0884436710        0.1451654181
 H          3.4022466707       -2.2080046289        0.2088842525
 H          1.7368267916       -2.1809461023        0.9682108900
 H          2.9963680308       -0.0669716293       -0.8513283720
 H          1.9109859288        2.2265975089       -0.2001521807
 H         -0.4903386325        3.2325626298        0.0811453312
 H          0.0351692721       -2.3337561359       -0.5251421824
 H         -2.6970314055       -1.4246776368        0.5209204900
 H         -2.2071883878       -3.1229261827        0.0312815990
  17
        -24.37754085
 C          2.9306324453       -1.1155064284        0.2472728018
 C          1.6860638053       -1.1338604014       -0.2144716716
 C          0.7344949040       -0.0476841923       -0.0694149650
 C          1.1106248723        1.3188121276        0.0428168923
 C          0.0556640079        2.1667579545        0.0669848628
 S         -1.4454205285        1.3379040358       -0.0456979477
 C         -0.6370849036       -0.2018718707       -0.1177079631
 C         -1.4429909764       -1.3951174073       -0.1785128497
 C         -1.0916645001       -2.5920697243        0.2835016940
 H          3.6023695047       -1.9413086030        0.0877647707
 H          3.3195927904       -0.2872065417        0.8151706404
 H          1.3222631299       -1.9978521342       -0.7559703698
 H          2.1339281978        1.6464993761        0.0770804768
 H          0.0604758858        3.2361814528        0.1417418601
 H         -2.4271128073       -1.2558627288       -0.6093298170
 H         -0.1526749003       -2.7633585046        0.7803045249
 H         -1.7525781344       -3.4370904724        0.1962326829
  17
        -24.37445701
 C          2.1976479811       -1.8295894440        0.3516768264
 C          1.9570663453       -0.7565967491       -0.3881424277
 C          0.8207049116        0.1437842422       -0.2367230163
 C          1.0091222227        1.5474008738       -0.3676889010
 C         -0.1018300236        2.2725008691       -0.0966661446
 S         -1.4331933045        1.2711094493        0.3150510485
 C         -0.4754430448       -0.1723312093        0.1115574472
 C         -1.1760788641       -1.4296425816        0.2391665555
 C         -0.8645819987       -2.5666811174       -0.3733687722
 H          3.0864419453       -2.4210620247        0.2130168031
 H          1.5165193041       -2.1542077908        1.1198839547
 H          2.6828439382       -0.4379633514       -1.1272413511
 H          1.9543448101        1.9860243586       -0.6363426889
 H         -0.2265752272        3.3369917108       -0.1148226891
 H         -2.0720123200       -1.3782998605        0.8465356088
 H         -0.0059591788       -2.6527132854       -1.0161492460
 H         -1.4669513147       -3.4493271941       -0.2471914839
