  29
        -51.51820666
 C          0.0562180658        4.1637868899       -0.0473059843
 C         -0.8112269900        3.1594704894       -0.0266288706
 C         -0.4928386391        1.7357353422        0.0244638153
 C         -1.5430937153        0.8181284990       -0.0060758875
 C         -1.3147240004       -0.5565301847        0.0374962003
 C         -2.3783381209       -1.5498054103        0.0061268564
 C         -3.6862949639       -1.3556021187       -0.0703360574
 F         -4.3398038107       -0.2017810184       -0.1363582318
 F         -4.5696908867       -2.3502892553       -0.0926290463
 C          0.0003624734       -1.0106653068        0.1154818228
 C          1.0571692104       -0.1088032897        0.1490402352
 C          2.4360124617       -0.6577731302        0.2332059646
 O          2.6878671164       -1.8376785875        0.2705061026
 O          3.3663848577        0.3035296557        0.2746091043
 C          4.7279855239       -0.1198264480        0.3416038814
 C          5.2734125351       -0.4634678488       -1.0371172588
 C          0.8143550275        1.2576843046        0.1033892319
 H         -0.2767291409        5.1865808843       -0.0867984310
 H          1.1223298935        4.0170342289       -0.0277561374
 H         -1.8710013863        3.3804872830       -0.0526539445
 H         -2.5515950717        1.1954633579       -0.0660296264
 H         -2.0681698568       -2.5837322331        0.0498485956
 H          0.2228823158       -2.0663740967        0.1522360836
 H          4.7963206702       -0.9903901529        1.0022871848
 H          5.2652962978        0.7239889972        0.7796946226
 H          4.7334527802       -1.3130720087       -1.4477119750
 H          6.3259022457       -0.7200311987       -0.9584353243
 H          5.1624348689        0.3845454481       -1.7087997900
 H          1.6492738619        1.9374959213        0.1324404883
