  31
        -50.04444214
 C         -7.2806040037       -1.0830100714       -0.5063686372
 C         -6.3700153899       -0.2400802585       -0.0233202502
 C         -4.9468459475       -0.3957588518       -0.1462991497
 C         -4.2121897622       -1.3862910659       -0.7532358838
 C         -2.8307637088       -1.1927986393       -0.6657002330
 C         -2.4800200528       -0.0471358215        0.0115050214
 C         -1.1762144411        0.4512228158        0.2827362261
 C         -0.8239700426        1.5993461324        0.9548444703
 C          0.5560913276        1.7916616384        1.0433758398
 C          1.2889384908        0.7929149916        0.4402592982
 C          2.7054073965        0.6778320130        0.3474142144
 C          3.6594737500        1.5446646991        0.8328552557
 C          4.9673239378        1.1278659423        0.5682119511
 C          5.0421924576       -0.0591220369       -0.1207960675
 C          6.2320885182       -0.7444529493       -0.5379544691
 C          6.2566166219       -1.8946043919       -1.2070057854
 S          3.4499894540       -0.6761260486       -0.4503466804
 S          0.2389026745       -0.4105171266       -0.2517388248
 S         -3.8966292931        0.8058916748        0.5495248982
 H         -8.3327531625       -0.9018082055       -0.3767741685
 H         -7.0091369488       -1.9745544109       -1.0442122493
 H         -6.6880029147        0.6457706329        0.5112577133
 H         -4.6589269822       -2.2293365248       -1.2480414796
 H         -2.0983909750       -1.8628293190       -1.0810477889
 H         -1.5543135420        2.2736037270        1.3665112738
 H          1.0072689101        2.6347773013        1.5337821177
 H          3.4176744866        2.4491260988        1.3607302790
 H          5.8397287421        1.6793802114        0.8723363518
 H          7.1557334089       -0.2496296507       -0.2645739575
 H          5.3466389666       -2.3997500175       -1.4864118714
 H          7.1810690342       -2.3631142057       -1.4937837142
