38
 energy: -52.545733729025 gnorm: 0.000102679580 xtb: 6.4.1 (23d549d)
C         5.46090610190000   -2.12270170580000    0.77177709390000
C         4.92936205370000   -0.93835452310000    0.49254626400000
C         3.52346978160000   -0.64568853450000    0.24739971210000
C         2.52916361110000   -1.62177203250000    0.24030065620000
C         1.20994286270000   -1.29378564870000   -0.00610686820000
C         0.83860695750000    0.02274359220000   -0.25140620560000
O        -0.43950080540000    0.42640643600000   -0.49499600320000
C        -1.47372607820000   -0.52971811210000   -0.49651973290000
C        -2.77658431210000    0.22630928460000   -0.82168205030000
C        -3.19531406710000    1.15666772870000    0.32372330840000
C        -3.80643013190000    0.37369767080000    1.48395222470000
C        -4.92845548940000   -0.51180717070000    0.94869963410000
C        -4.37754272510000   -1.40251148940000   -0.16306922080000
O        -3.81052045850000   -0.65014942790000   -1.21669093560000
C         1.82310122730000    1.03374215810000   -0.24326389270000
C         1.42534319300000    2.41188845310000   -0.50978549320000
C         2.12625250590000    3.49854685370000   -0.21148430920000
C         3.14016483480000    0.67163718250000   -0.00016755590000
H         6.51843250260000   -2.23568636890000    0.93821576320000
H         4.87528119440000   -3.02264997660000    0.84792477460000
H         5.58165620190000   -0.07502755900000    0.43521683570000
H         2.78090855180000   -2.65457174610000    0.42286490790000
H         0.47127492750000   -2.08034100810000   -0.00967444650000
H        -1.53413131100000   -1.02365046370000    0.48135379770000
H        -1.30769787570000   -1.29048775390000   -1.27159110290000
H        -2.57406636730000    0.82684262590000   -1.71660163640000
H        -3.93811652360000    1.85934607610000   -0.05886956280000
H        -2.32061497200000    1.72030592420000    0.64886771210000
H        -4.19243610320000    1.06600378200000    2.23418913290000
H        -3.04750081190000   -0.24678702910000    1.96562778690000
H        -5.72344222890000    0.11469094290000    0.53997158270000
H        -5.34788352140000   -1.13407241450000    1.74013319590000
H        -5.17622550700000   -1.98195936040000   -0.63191467360000
H        -3.63822441410000   -2.10295197290000    0.25209352980000
H         0.45453816250000    2.51366450120000   -0.97536159680000
H         3.08182422540000    3.45768694080000    0.28344679820000
H         1.75864801390000    4.48291967580000   -0.44555136650000
H         3.89959888960000    1.43904120070000   -0.01792731610000
