  26
        -49.80475198
 C          2.9100880280       -2.8001933211        0.4312748383
 C          2.7783369156       -1.6792257130       -0.2640596567
 C          1.7501411534       -0.6657671924       -0.0235222306
 C          0.4803725717       -1.0682101418        0.3729908091
 C         -0.5168306215       -0.1309465750        0.5552888716
 O         -1.8136559750       -0.5598987662        0.9654145948
 C         -2.6438726541       -0.8176276378       -0.0148024968
 F         -2.2304266334       -1.7950013046       -0.8484677231
 F         -3.8178975888       -1.2075142745        0.4740225351
 F         -2.8940766640        0.2357884052       -0.8207913699
 C         -0.2776019835        1.2137820176        0.3542168775
 C          0.9931307041        1.6516615446       -0.0015597226
 C          1.1870052468        3.0952943053       -0.1556309820
 C          2.2456964992        3.7945421109        0.2344223371
 C          2.0199916992        0.7071794724       -0.2142669078
 N          3.2802704261        1.1254079869       -0.5554264787
 H          3.6695402124       -3.5254599147        0.1954580300
 H          2.2765595580       -3.0267611419        1.2716202249
 H          3.4610881693       -1.4903878013       -1.0850434088
 H          0.2630473661       -2.1155621036        0.5059433872
 H         -1.0736391830        1.9284936615        0.4944439299
 H          0.3405131821        3.6154967678       -0.5878696657
 H          3.0826090112        3.3432436779        0.7400171880
 H          2.2860642468        4.8629620317        0.1044556803
 H          3.3450131952        2.0431948934       -0.9674580654
 H          3.9041907357        0.4328521554       -0.9345087659
