  23
        -28.81547993
 C          3.0992232321        0.1228555308        0.6811967327
 N          2.2303277047        0.3890720134       -0.4515168558
 C          0.8392761552        0.3247151353       -0.2461143763
 C          0.0643831967        1.4751016900       -0.3689250747
 C         -1.3088816582        1.4384722199       -0.2220740552
 C         -1.9509301493        0.2432392086        0.0612375413
 C         -3.4380274111        0.1739844754        0.2414643285
 C         -1.1789056529       -0.9078666693        0.1534597698
 C          0.1970787576       -0.8979171227       -0.0078481205
 C          0.9541761061       -2.1927112608        0.0277275354
 H          4.1282007068        0.0743428274        0.3245810943
 H          2.8409905510       -0.8304111132        1.1324555023
 H          3.0339034127        0.8970984833        1.4585971850
 H          2.4762814531        1.2841277380       -0.8635392043
 H          0.5530494028        2.4164308631       -0.5863688577
 H         -1.8814732312        2.3497365513       -0.3219125523
 H         -3.8843201673        1.1626862308        0.1689120835
 H         -3.6851588153       -0.2487665883        1.2146955682
 H         -3.8842692253       -0.4640839442       -0.5209988565
 H         -1.6713847344       -1.8525437219        0.3418507999
 H          0.3239543204       -3.0021180020       -0.3353639569
 H          1.2595631034       -2.4435604087        1.0446978076
 H          1.8409129546       -2.1266198960       -0.5977907528
