20
 energy: -27.545278536794 gnorm: 0.000096690520 xtb: 6.4.1 (23d549d)
C         2.58086667800000   -1.41400544880000    0.56766711300000
C         2.14684932160000   -0.34773608270000   -0.09567901150000
C         0.79628505650000    0.16440781440000   -0.10584509490000
S         0.61419647990000    1.87351666270000   -0.39930481060000
C        -1.07987353400000    1.78024509880000   -0.14029977610000
C        -1.49631354820000    0.52071432530000    0.14945151990000
C        -2.92051731240000    0.15023702630000    0.40222604930000
C        -0.42138577410000   -0.42160556240000    0.15810231170000
C        -0.68501323400000   -1.84396023070000    0.35528089050000
C        -0.18553418110000   -2.81868010640000   -0.38953179630000
H         3.61755430520000   -1.70102306150000    0.54007334120000
H         1.92251190490000   -2.02959756320000    1.15511535950000
H         2.85407329380000    0.26278352140000   -0.64457687870000
H        -1.67397365830000    2.66950371850000   -0.21845136350000
H        -3.56504843910000    1.01657663150000    0.27671713010000
H        -3.04150753670000   -0.22834409560000    1.41717950010000
H        -3.23783224100000   -0.62925645200000   -0.28933341690000
H        -1.40234864680000   -2.07191548190000    1.13475168560000
H         0.50647233350000   -2.62030589550000   -1.19063949610000
H        -0.44620730890000   -3.84970120840000   -0.22098799130000
