  39
        -45.47712314
 C         -5.7153095805       -0.1945488606       -2.1149640597
 C         -4.8953280882       -0.2109176098       -0.8304826941
 C         -4.8056674345        1.1787651252       -0.2034794031
 C         -4.1276644689        1.1885929938        1.1677465948
 C         -2.6756362434        0.7076846135        1.1719768511
 C         -1.7453134393        1.5935855239        0.3457597557
 C         -0.2722391389        1.2130635050        0.4933082956
 C          0.0676856446       -0.1264874862       -0.1700397424
 C          1.5237724304       -0.4440377268       -0.0256403787
 C          2.0280212707       -1.2657898464        1.0197373470
 C          3.3745124424       -1.4185289932        1.0050996361
 C          4.2350653241       -2.2030882241        1.9301416133
 S          4.0746680753       -0.5360580836       -0.3175464923
 C          2.5120328574        0.0296267072       -0.8338897641
 C          2.4123957086        0.9305931562       -2.0147661847
 H         -5.7625790622       -1.1891210576       -2.5528715746
 H         -5.2694747488        0.4799086492       -2.8432172507
 H         -6.7309726525        0.1414305121       -1.9167218701
 H         -3.8937158255       -0.5810855990       -1.0552997740
 H         -5.3537297011       -0.8992461090       -0.1163414628
 H         -5.8183557542        1.5729769205       -0.0835591165
 H         -4.2767278468        1.8493172102       -0.8830282542
 H         -4.7037563381        0.5533034914        1.8457636847
 H         -4.1616984104        2.2068976537        1.5639801675
 H         -2.6356224363       -0.3186179186        0.8068345658
 H         -2.3222892805        0.7010549976        2.2066517371
 H         -1.8734899877        2.6301381908        0.6682542641
 H         -2.0190345859        1.5378083850       -0.7093576491
 H         -0.0104963757        1.1642355910        1.5528627088
 H          0.3442279316        1.9910480734        0.0372839653
 H         -0.2041352567       -0.0804917208       -1.2274806227
 H         -0.5116848417       -0.9247905164        0.2952559242
 H          1.3923888432       -1.7289159186        1.7547121763
 H          3.6204131762       -2.6876027052        2.6853212803
 H          4.9581687836       -1.5563745778        2.4269732714
 H          4.7903184748       -2.9667157046        1.3855816261
 H          3.1994313674        0.7064571890       -2.7318339212
 H          2.5184284535        1.9745930515       -1.7147392834
 H          1.4464165220        0.8143108021       -2.5021775298
