  39
        -58.51895191
 C         -1.0240952746        4.5895510254       -0.1580763098
 O         -2.2010390646        3.8231849955       -0.1267201832
 C         -2.0925688045        2.4633438896       -0.0749971233
 C         -3.3157803189        1.7734443631       -0.0481439893
 C         -3.3606807541        0.3997592031       -0.0127539380
 C         -0.8889475812        1.7756543523       -0.0510145825
 C         -0.9411495252        0.3886065843        0.0079241223
 C         -2.1663090925       -0.3117580408        0.0119903937
 C         -1.8391065689       -1.7088283677        0.0295892160
 C         -2.5993762699       -2.8705807241        0.0562399828
 C         -1.9479519119       -4.0874784297        0.0897489379
 C         -0.5569518484       -4.1558804782        0.1110919108
 C          0.2215097777       -3.0140498978        0.0852587335
 C         -0.4271406292       -1.7897382720        0.0285263897
 N          0.1017011829       -0.5132042262        0.0171791168
 C          1.4668516718       -0.1921948568        0.0154475337
 C          1.9800877618        0.7047119569        0.9467929260
 C          3.3246636224        1.0235805503        0.9339929085
 C          4.1878821865        0.4520897520        0.0074978350
 C          5.6503305812        0.7769796898        0.0138872605
 C          3.6668307592       -0.4485303203       -0.9144380663
 C          2.3227259957       -0.7664306654       -0.9195872802
 H         -1.3485868613        5.6284421496       -0.1944246128
 H         -0.4215459306        4.3682810049       -1.0455479057
 H         -0.4165337491        4.4325671338        0.7397053575
 H         -4.2193152148        2.3614738632       -0.0663716857
 H         -4.3071598934       -0.1185490416       -0.0072664931
 H          0.0619076746        2.2821744761       -0.0903218123
 H         -3.6776773920       -2.8175673512        0.0548171486
 H         -2.5212038763       -5.0026090951        0.1084748311
 H         -0.0757317271       -5.1220634909        0.1521102777
 H          1.2990074026       -3.0757018980        0.1190287476
 H          1.3231638811        1.1376426779        1.6865789128
 H          3.7114767279        1.7222842307        1.6621491222
 H          5.8324850020        1.7443975613        0.4755617768
 H          6.0491115200        0.7870147570       -0.9981343015
 H          6.1967002874        0.0229290809        0.5816258391
 H          4.3226426621       -0.9002225864       -1.6449767225
 H          1.9254117506       -1.4503038858       -1.6546940771
  39
        -58.51846268
 C         -2.8829371577        4.7115319112       -0.1635158379
 O         -1.7427865406        3.8910438981       -0.1222493800
 C         -1.9088164572        2.5353332378       -0.0753225169
 C         -3.1513435197        1.8934424588       -0.0588541475
 C         -3.2334920630        0.5147209953       -0.0264751390
 C         -0.7277294126        1.7993454893       -0.0458069398
 C         -0.8161667949        0.4203797295        0.0080812138
 C         -2.0695818498       -0.2366750383        0.0039685809
 C         -1.7930160326       -1.6452215639        0.0222246448
 C         -2.5954074955       -2.7778971368        0.0435076345
 C         -1.9893989244       -4.0182625695        0.0811410144
 C         -0.6022560254       -4.1367482722        0.1122485169
 C          0.2175101195       -3.0238561818        0.0915541854
 C         -0.3848267771       -1.7761968367        0.0300648352
 N          0.1914398090       -0.5205171811        0.0219833551
 C          1.5678627941       -0.2499485922        0.0208915422
 C          2.1110574440        0.6368545267        0.9443162177
 C          3.4669086290        0.9040191464        0.9327996701
 C          4.3106268152        0.2911498950        0.0151444576
 C          5.7842083115        0.5617336603        0.0197144805
 C          3.7587214306       -0.5981120410       -0.8999309298
 C          2.4037423998       -0.8653416484       -0.9059806689
 H         -2.5080905352        5.7335000105       -0.2008382346
 H         -3.5027611832        4.5880396437        0.7308756497
 H         -3.4886434494        4.5174788815       -1.0549849821
 H         -4.0627260132        2.4692049422       -0.0796281169
 H         -4.1981007636        0.0300686982       -0.0279377662
 H          0.2160222432        2.3190993396       -0.0768992168
 H         -3.6711295101       -2.6856922051        0.0350124470
 H         -2.5959905971       -4.9117188025        0.0957693593
 H         -0.1566391713       -5.1197162145        0.1569874057
 H          1.2916246078       -3.1250295310        0.1333442859
 H          1.4683270456        1.1055156869        1.6741986850
 H          3.8769674037        1.5961553719        1.6542775201
 H          6.0054940428        1.5034002576        0.5159158784
 H          6.1735883782        0.5971281390       -0.9955718737
 H          6.3081246310       -0.2335310512        0.5511752574
 H          4.3991091283       -1.0804203348       -1.6246406110
 H          1.9832615632       -1.5400107984       -1.6367677426
