  25
        -33.03809184
 C         -3.9628522339        1.0521645238       -0.1071011681
 C         -3.2591034119       -0.0640850487        0.0478134850
 C         -1.8108453478       -0.1965283173        0.0432288573
 C         -1.2381880909       -1.4567457769        0.2271836796
 C          0.1268473955       -1.6347019421        0.2034944751
 C          0.9969938998       -0.5559485681        0.0210163944
 N          2.3601480263       -0.7295668275       -0.0067191109
 C          2.9663546078       -2.0268301850       -0.1748606810
 C          0.4376811404        0.7335549815       -0.1281478201
 C          1.2423025544        1.9456831719       -0.2855246584
 C          2.3766679494        2.2321765329        0.3429327410
 C         -0.9427136991        0.8766203245       -0.1413151110
 H         -5.0392643881        1.0422651631       -0.0884251609
 H         -3.5051048183        2.0148188001       -0.2570208674
 H         -3.7909397589       -0.9970221028        0.1962480452
 H         -1.8793074276       -2.3144817677        0.3766185956
 H          0.5267853578       -2.6283263783        0.3293499328
 H          2.8572645810        0.0339806420       -0.4424812950
 H          2.7503634284       -2.6537214413        0.6918439521
 H          4.0450485090       -1.8995440988       -0.2402848144
 H          2.6184619809       -2.5462126649       -1.0769884675
 H          0.8120952506        2.6863364535       -0.9507115394
 H          2.8156912965        1.5733253237        1.0730950048
 H          2.8831932947        3.1695885440        0.1824104330
 H         -1.3457875696        1.8686793757       -0.2808704853
