24
 energy: -34.174506759035 gnorm: 0.000111828839 xtb: 6.4.1 (23d549d)
C        -3.70688437930000   -0.05200531950000   -0.59462321390000
C        -2.92258936510000    0.81204462940000    0.03760799000000
C        -1.46859758250000    0.75535425800000    0.10000286890000
C        -0.74492531450000    1.93932274610000    0.17258733570000
C         0.64309593120000    1.96504760580000    0.16911734260000
C         1.40540526930000    0.80472123270000    0.09039355900000
C         2.85788553690000    0.89120408200000    0.02996563170000
C         3.67208435040000    0.03923357230000   -0.58311592870000
C         0.68685543970000   -0.39839272230000    0.08564531340000
N         1.13797244610000   -1.68502207720000    0.12984369090000
C         0.06948073510000   -2.53286744050000    0.19555345840000
C        -1.08750042540000   -1.81881047490000    0.16418558930000
C        -0.73020229840000   -0.44230494280000    0.09501894070000
H        -4.77679004290000    0.07060328540000   -0.61613280930000
H        -3.31080240370000   -0.89391487620000   -1.13483516510000
H        -3.36510534230000    1.67783499370000    0.51693719140000
H        -1.28184496470000    2.87690498670000    0.20937266250000
H         1.15032747170000    2.91876595450000    0.20472091450000
H         3.27863973880000    1.76994517020000    0.50456347350000
H         3.31219493580000   -0.81227747750000   -1.13638888240000
H         4.73806356730000    0.19184463890000   -0.59451416980000
H         2.10298812980000   -1.95342594610000    0.21559675810000
H         0.21605364780000   -3.59471363540000    0.25367083530000
H        -2.07756402430000   -2.22235388520000    0.22138462810000
