  53
        -62.35974061
 C          5.2112314562        4.2583378943        0.9171326316
 C          4.0807589788        3.6217694607        1.2112359972
 C          3.2168230072        2.9889019855        0.2544095487
 C          2.0434038421        2.3275470088        0.5120781081
 C          1.4059358755        1.8113876451       -0.6309424897
 C          0.1338294388        1.0238423105       -0.5749819585
 C          0.3881240143       -0.4844826368       -0.7067891072
 C          1.2372423144       -1.0668300392        0.4232404197
 C          0.6082537126       -0.9889746187        1.8166483866
 C         -0.7700065995       -1.6399057228        1.9423330173
 C         -0.7630826892       -3.1327816086        1.6200014506
 C         -2.0879617063       -3.8218540319        1.9492156165
 C         -3.2423792927       -3.3645876115        1.0595193652
 C         -4.5237985351       -4.1407688452        1.3559099606
 C         -5.6827443829       -3.7770599255        0.4270868562
 C         -6.2054268366       -2.3563712285        0.6307918672
 C         -7.4335786297       -2.0820931274       -0.2288187321
 C          2.1076591956        2.0814116333       -1.7873972253
 C          1.7586445792        1.7234147900       -3.1340111762
 C          2.5175093409        1.9470053361       -4.2040633980
 S          3.5608955265        2.9794942311       -1.4479426380
 H          5.8183498682        4.7156364706        1.6779830961
 H          5.5602480994        4.3390089241       -0.0991214219
 H          3.7437908663        3.5498579158        2.2380967170
 H          1.6473243916        2.2218368038        1.5074930573
 H         -0.5315311165        1.3389306464       -1.3827236459
 H         -0.3715503935        1.2292679811        0.3692886559
 H          0.9065289640       -0.6701155470       -1.6507101081
 H         -0.5720150525       -1.0010278056       -0.7514854848
 H          2.1940949248       -0.5392375182        0.4506089425
 H          1.4509785987       -2.1112724496        0.1878975791
 H          0.5243515158        0.0569661631        2.1179690614
 H          1.2914605970       -1.4716730688        2.5204455731
 H         -1.4760206281       -1.1233382707        1.2916694109
 H         -1.1168137749       -1.5059501845        2.9706430002
 H          0.0331111597       -3.6108728342        2.1965022545
 H         -0.5419409257       -3.2824692280        0.5616882110
 H         -2.3432972977       -3.6353815537        2.9952819984
 H         -1.9596244463       -4.9009586921        1.8301970283
 H         -2.9683660356       -3.5102546977        0.0114844448
 H         -3.4205681698       -2.3008768816        1.2165282275
 H         -4.8223264161       -3.9613520572        2.3916896196
 H         -4.3175756652       -5.2095242860        1.2543385767
 H         -6.5032743787       -4.4773597799        0.6034160607
 H         -5.3646370233       -3.8987413716       -0.6112519565
 H         -5.4264512574       -1.6356024836        0.3770249605
 H         -6.4609803632       -2.2150153182        1.6835895598
 H         -7.1970930688       -2.2109777233       -1.2829754695
 H         -7.7878996955       -1.0647357269       -0.0787531378
 H         -8.2395807972       -2.7670435528        0.0259214735
 H          0.7979675040        1.2383065120       -3.2474897836
 H          3.4806459047        2.4227496414       -4.1206744211
 H          2.2011290818        1.6607347437       -5.1913984282
