  23
        -42.29223497
 C          1.5208386553        3.0726543009       -0.0440752610
 C          1.1669085968        1.8997421955       -0.5503767000
 C         -0.0825953479        1.2037166558       -0.2548616204
 C         -1.2531935574        1.9210316234       -0.0156342029
 C         -2.4638271558        1.2880846578        0.1822234422
 C         -2.5654960472       -0.0966210936        0.1329616315
 C         -3.8613929624       -0.8196102928        0.3195123110
 C         -1.3950925415       -0.8017664945       -0.1059523670
 F         -1.4600464432       -2.1539470758       -0.1497752603
 C         -0.1518508735       -0.1993048517       -0.2826911837
 C          1.0049460576       -1.0709000311       -0.4845220520
 C          2.1902620784       -0.9285737795        0.0832530479
 F          2.5632659696        0.0122036817        0.9413911118
 F          3.2079494464       -1.7619025522       -0.1188000079
 H          2.4496003096        3.5439895853       -0.3137764779
 H          0.9135924220        3.5917202962        0.6779769447
 H          1.8291628972        1.3933370237       -1.2414802764
 H         -1.2105589005        2.9989360826       -0.0102000104
 H         -3.3522257528        1.8737984148        0.3653812548
 H         -4.6590867847       -0.1236322929        0.5626942188
 H         -3.7721921090       -1.5541987732        1.1186042353
 H         -4.1263077276       -1.3577471405       -0.5901553735
 H          0.8608462663       -1.9512419089       -1.0941435111
  23
        -42.29130004
 C          1.0079289640        3.7229979295       -0.9624334043
 C          1.0673289680        2.5008434953       -0.4499075065
 C         -0.0801015088        1.6179749204       -0.2510855540
 C         -1.3528302908        2.1282887711       -0.0110780508
 C         -2.4314105674        1.2957669844        0.2162313717
 C         -2.2865381604       -0.0845731199        0.2032970265
 C         -3.4315896502       -1.0197927693        0.4267226985
 C         -1.0123184309       -0.5846009379       -0.0370052206
 F         -0.8610812271       -1.9260797801       -0.0993821285
 C          0.0976883105        0.2238095890       -0.2538620549
 C          1.4094826235       -0.3696938373       -0.5331531782
 C          1.9508665828       -1.3521069759        0.1663961478
 F          1.4609833592       -1.9116641833        1.2609694756
 F          3.1344935956       -1.8912516226       -0.1141509259
 H          1.8909840847        4.3274092645       -1.0775460068
 H          0.0846170973        4.1605608082       -1.3023354849
 H          2.0246441831        2.0947478530       -0.1507299805
 H         -1.4920497079        3.1974251109        0.0218098678
 H         -3.4055753716        1.7201928022        0.4079557812
 H         -4.3282806269       -0.4725994099        0.7032413756
 H         -3.1885482203       -1.7319343934        1.2137049659
 H         -3.6313561869       -1.5911484154       -0.4794867734
 H          1.9712027528        0.0087237917       -1.3732629651
  23
        -42.29110989
 C          1.9829538459        2.6683121868       -0.3641985309
 C          0.7182445845        2.6752491206       -0.7643659831
 C         -0.2955579043        1.6707329407       -0.4525115180
 C         -1.6104932858        2.0965227689       -0.2739742987
 C         -2.6172672613        1.2159547416        0.0671573962
 C         -2.3576701077       -0.1401815223        0.2108413078
 C         -3.4208203438       -1.1351048249        0.5508488177
 C         -1.0499612666       -0.5597242964        0.0028616810
 F         -0.8001662658       -1.8860269133        0.0661230512
 C         -0.0032362241        0.3032029235       -0.3118917629
 C          1.3353222966       -0.2246113083       -0.5767205771
 C          1.9490494834       -1.1481727057        0.1438451238
 F          1.5287226710       -1.6889734439        1.2769599814
 F          3.1571301689       -1.6254753516       -0.1505967088
 H          2.6549260573        3.4684563072       -0.6239983757
 H          2.3881056336        1.8894459619        0.2581878663
 H          0.3493968941        3.5184967364       -1.3358391719
 H         -1.8375003662        3.1461672547       -0.3886508003
 H         -3.6234064014        1.5790075995        0.2137939960
 H         -4.3690590563       -0.6385552497        0.7357738672
 H         -3.1353808807       -1.7030665431        1.4351076145
 H         -3.5455260752       -1.8455971394       -0.2658199387
 H          1.8620399764        0.1628982057       -1.4360189448
  23
        -42.29079166
 C          1.8897986721        2.0855023517       -1.1255703921
 C          1.0444613427        2.1415476215       -0.1078709226
 C         -0.1520843028        1.3061904327        0.0309886256
 C         -1.3496368976        1.9242492666        0.3823565206
 C         -2.5401640450        1.2257347994        0.4298430493
 C         -2.5846900615       -0.1290625129        0.1291581898
 C         -3.8523030383       -0.9225395377        0.1544415516
 C         -1.3803601559       -0.7394384667       -0.1919264879
 F         -1.3888686104       -2.0672686025       -0.4589344024
 C         -0.1590731576       -0.0713836216       -0.2324868353
 C          1.0402557608       -0.8657995696       -0.5108224389
 C          2.1691388866       -0.7988177057        0.1713112448
 F          2.4360400704        0.0099887328        1.1892302545
 F          3.2324967092       -1.5587504304       -0.0757359457
 H          2.7297144507        2.7544030971       -1.1980148543
 H          1.7707824052        1.3769354139       -1.9287507089
 H          1.1718437344        2.8923419247        0.6609976674
 H         -1.3431215979        2.9817933720        0.6006331397
 H         -3.4526243222        1.7362533082        0.6989287295
 H         -4.6918571300       -0.2978108798        0.4453693127
 H         -3.7646039935       -1.7509215623        0.8563197581
 H         -4.0499514629       -1.3479164032       -0.8288067853
 H          0.9677060378       -1.6302500646       -1.2702439005
