  23
        -50.74697209
 C          0.6423361738       -4.6064058573        0.0837423834
 C         -0.3142024445       -3.7006195400       -0.0782835202
 C         -0.1501698456       -2.2510589070       -0.0507407632
 C          1.0955408931       -1.6282210301       -0.0416375807
 C          1.2273639905       -0.2411849170       -0.0129983617
 C          2.5719929406        0.3147633709       -0.0078742487
 C          2.9363314632        1.5891127967        0.0156207787
 F          2.1590258708        2.6599623003        0.0400909379
 F          4.2073605733        1.9753626890        0.0177355069
 C          0.0758886142        0.5490191598        0.0073217279
 C         -1.1647566966       -0.0656267645       -0.0054153417
 C         -2.4268472757        0.7514000909        0.0056075406
 F         -2.2148204187        2.0683044336        0.1030290246
 F         -3.1555894714        0.5640985335       -1.1119356623
 F         -3.2339995828        0.4176170628        1.0302749279
 C         -1.2892477351       -1.4463757047       -0.0381771051
 H          0.4223151649       -5.6592907204        0.0525496836
 H          1.6720647049       -4.3470845539        0.2609442686
 H         -1.3328368212       -4.0324052079       -0.2334383089
 H          1.9890296417       -2.2322681954       -0.0658191744
 H          3.3868746299       -0.3942392511       -0.0256379992
 H          0.1358322236        1.6240170707        0.0307482385
 H         -2.2720400886       -1.8937465196       -0.0483259560
