  29
        -37.04375390
 C         -3.1318509625       -2.7375821177        0.1581687534
 C         -3.0969729711       -1.4076633126        0.1105129014
 C         -1.9037692174       -0.6063202536        0.0756772031
 C         -0.5850578087       -0.9878899734        0.0773618944
 C          0.3237207606        0.0835254835        0.0393402739
 C          1.8196122842       -0.0531570370        0.0275352126
 C          2.3163807006       -1.4795104046        0.2521812732
 C          3.8394004675       -1.5595222755        0.3675064463
 C          4.5608133747       -1.2331502912       -0.9351626119
 C         -0.3128027117        1.3101253630        0.0029557610
 C          0.2923660829        2.6115565340       -0.0501729070
 C         -0.3747865413        3.7627360083       -0.0867642697
 S         -2.0408997923        1.1230026734        0.0228338599
 H         -4.0653629342       -3.2712521368        0.1821364455
 H         -2.2370161869       -3.3350986453        0.1748446694
 H         -4.0225950953       -0.8466352546        0.0959874434
 H         -0.2882561215       -2.0194797477        0.1047601467
 H          2.2382359308        0.5901764322        0.8076634299
 H          2.1911907058        0.3142705412       -0.9333882596
 H          1.9894007275       -2.1165509853       -0.5724223141
 H          1.8781242616       -1.8651248019        1.1758103486
 H          4.1091220733       -2.5733209079        0.6732080808
 H          4.1791274648       -0.8788621430        1.1518760863
 H          4.2027030390       -1.8729715365       -1.7390080760
 H          5.6309247958       -1.3921685546       -0.8227276125
 H          4.4037503499       -0.1970202068       -1.2236975911
 H          1.3743394061        2.6155564634       -0.0625871234
 H         -1.4519532613        3.7888103195       -0.0785102592
 H          0.1335572941        4.7096632155       -0.1266860204
