  19
        -35.16533601
 C         -1.1265676296       -2.6426281772        0.5106715973
 C         -1.8463463682       -1.7107488519       -0.1000183258
 C         -1.5402967083       -0.2817154510       -0.1400594951
 N         -2.6115611160        0.5051957708       -0.1003108214
 C         -2.4612759030        1.8122520459       -0.0526558745
 C         -1.2185618392        2.4307790360       -0.0462018555
 C         -0.0950747376        1.6319699365       -0.1478440257
 C         -0.2330346491        0.2444133049       -0.2069433697
 C          0.9158144663       -0.6268977793       -0.4127143147
 C          2.1542773019       -0.3943820678       -0.0079587967
 F          2.5864960645        0.6381746338        0.7083656013
 F          3.1741521349       -1.2169581945       -0.2448265064
 H         -1.4429487368       -3.6717593016        0.5267878065
 H         -0.2188745308       -2.4159420956        1.0448707809
 H         -2.7942762185       -1.9635476600       -0.5551593917
 H         -3.3777664668        2.3865972742       -0.0210399557
 H         -1.1334025752        3.5044243589        0.0084343005
 H          0.8850283484        2.0805445038       -0.2034483128
 H          0.7491802147       -1.5492102410       -0.9494114606
