  30
        -49.12402944
 C          4.9455364270        0.7447434718        0.2591498413
 O          3.5302849885        0.8503335728        0.2702596521
 C          2.8630579771       -0.2531189096       -0.0953961642
 O          3.4280993145       -1.2720372565       -0.4150177690
 C          1.3825737363       -0.1208671393       -0.0530366373
 C          0.6857918862       -1.3238040178       -0.1471190118
 C         -0.6973045975       -1.3997821142       -0.1200565550
 C         -1.3673841711       -2.7292517987       -0.2195289385
 C         -1.4060227849       -0.1941637172       -0.0011429820
 C         -2.8889936463       -0.1735956707        0.0400390018
 O         -3.6091360517       -1.1404992092        0.0972973620
 O         -3.3809949104        1.0796712599        0.0071308506
 C         -4.7947156504        1.1841922160        0.0469794901
 C         -0.7094629869        1.0101148248        0.0813608108
 C          0.6746405939        1.0841274053        0.0601795157
 C          1.3293267694        2.4257386659        0.1470194532
 H          5.3250170330        1.7168596832        0.5635028260
 H          5.2997889889        0.4886616061       -0.7415827436
 H          5.2743381651       -0.0310911147        0.9537134593
 H          1.2704380544       -2.2273467903       -0.2435031102
 H         -0.6309712766       -3.5164718999       -0.3587608947
 H         -2.0713367867       -2.7428671585       -1.0490871780
 H         -1.9431170000       -2.9306825341        0.6819055104
 H         -5.0222088451        2.2463603770        0.0068815052
 H         -5.1832178166        0.7422585257        0.9670956914
 H         -5.2388390453        0.6638767443       -0.8043897117
 H         -1.2795899019        1.9222466924        0.1674514622
 H          0.5802622439        3.2130912740        0.1115113766
 H          2.0308800483        2.5682027245       -0.6717957990
 H          1.8893968820        2.5157542845        1.0757513822
