  54
        -60.20060122
 C         -6.0806221050        0.8068737189       -1.3570787509
 C         -4.6982411962        0.1736289542       -1.4672501727
 C         -3.7669269550        0.5421020846       -0.3117566844
 C         -4.2226239823       -0.0257501531        1.0313104098
 C         -3.2195662774        0.2104783477        2.1626141481
 C         -2.0407415868       -0.7739557992        2.1868509017
 C         -1.0382284885       -0.5566047649        1.0852531780
 C         -0.2729475413        0.6009046679        1.1095499954
 C          0.6774115718        0.9007111967        0.1446463988
 C          1.4367843754        2.1920934497        0.2396883028
 C          0.8842134892       -0.0121533693       -0.8899395009
 C          1.9102896389        0.1861709784       -1.9745804081
 C          3.0569923237       -0.8284799057       -1.8650204809
 C          3.9128147956       -0.6470055857       -0.6105721283
 C          4.9148534771        0.4998180026       -0.7342026475
 C          5.8192276599        0.6395281121        0.4914948455
 C          5.0917454513        1.1684234358        1.7223345193
 C          0.1167569633       -1.1691102586       -0.9154921131
 C         -0.8368858477       -1.4669166574        0.0457778057
 C         -1.6202966303       -2.7430658747       -0.0638661237
 H         -6.6712540729        0.5819363521       -2.2426014589
 H         -5.9966743084        1.8878823257       -1.2670238720
 H         -6.6159942093        0.4294785682       -0.4896967175
 H         -4.2347698354        0.4997847351       -2.4015197236
 H         -4.8013219446       -0.9132858284       -1.5149559214
 H         -3.7027307994        1.6303942303       -0.2353790308
 H         -2.7674495096        0.1714053599       -0.5400630912
 H         -4.4093224709       -1.0978610522        0.9317859316
 H         -5.1681474891        0.4445904707        1.3102289941
 H         -3.7468547795        0.1138634568        3.1156138096
 H         -2.8419884587        1.2326679440        2.0970867926
 H         -2.4315418012       -1.7902987004        2.1585727319
 H         -1.5223142650       -0.6472270195        3.1425033503
 H         -0.4256327682        1.3002479565        1.9207792274
 H          1.1219189319        2.7516679824        1.1174713513
 H          1.2576528037        2.8100272221       -0.6401263317
 H          2.5064856183        2.0106442560        0.3169713980
 H          2.3136321754        1.1963936412       -1.9494288489
 H          1.4240253338        0.0476566190       -2.9446979915
 H          3.6924644005       -0.7469469434       -2.7505214649
 H          2.6308294604       -1.8336788543       -1.8558669028
 H          4.4709318989       -1.5692324527       -0.4290316154
 H          3.2526366371       -0.4884334113        0.2433184558
 H          4.3909845704        1.4429982192       -0.9008817794
 H          5.5424587378        0.3168361082       -1.6107701622
 H          6.6371911592        1.3225002728        0.2483721171
 H          6.2603542499       -0.3330575294        0.7221349126
 H          4.6759386135        2.1548125216        1.5256414342
 H          5.7807569742        1.2527182323        2.5599226089
 H          4.2827105776        0.5041484713        2.0151636049
 H          0.2667907157       -1.8675149849       -1.7280444553
 H         -1.3298006404       -3.2887185504       -0.9585285777
 H         -2.6882649440       -2.5397799316       -0.1200522386
 H         -1.4398139938       -3.3840416114        0.7989599921
