  45
        -66.17305288
 C         -2.7663693172        4.4971909149       -0.5145756922
 C         -3.0215763409        3.0300249339       -0.3392606121
 C         -4.3404339427        2.5662224198       -0.2743021718
 C         -4.6313007013        1.2268971303       -0.1286955772
 C         -1.9666871927        2.1386893508       -0.2403702641
 C         -2.2497739415        0.7912939431       -0.0683883737
 C         -3.5815299645        0.3227380711       -0.0281154263
 C         -3.5096804420       -1.1046226106        0.1054835087
 C         -4.4675189833       -2.1040359533        0.2140443406
 C         -4.0469835777       -3.4112253055        0.3563605261
 C         -2.6908929256       -3.7257062053        0.4068500143
 C         -1.7190649747       -2.7489721157        0.3013598758
 C         -2.1352083030       -1.4362773397        0.1330941326
 N         -1.3850713957       -0.2812509963        0.0285961893
 C          0.0136368602       -0.2095275962        0.0229348165
 C          0.6759885320        0.6727983395        0.8722657804
 C          2.0543254463        0.7425400438        0.8621074665
 C          2.8065403228       -0.0653662019        0.0117070215
 C          4.2746302997        0.0099010319        0.0063316236
 C          4.9844006591        0.1189576435        1.2000878884
 C          6.3650585946        0.1865616908        1.1944308268
 C          7.0594134186        0.1520175370       -0.0032445853
 C          6.3639422019        0.0466296973       -1.1961250411
 C          4.9835542998       -0.0266686078       -1.1923106574
 C          2.1346934656       -0.9466995118       -0.8329969067
 C          0.7564246161       -1.0192833474       -0.8320145168
 H         -3.2825491799        4.8706988356       -1.3979139769
 H         -1.7034609226        4.6990172444       -0.6206345089
 H         -3.1400634044        5.0511368390        0.3463729225
 H         -5.1451246445        3.2831723802       -0.3515269384
 H         -5.6542093129        0.8829418572       -0.0971842061
 H         -0.9465323225        2.4873064972       -0.3088271959
 H         -5.5185305700       -1.8579136537        0.1915971133
 H         -4.7758410962       -4.2037901553        0.4397519557
 H         -2.3918597830       -4.7557742364        0.5347111263
 H         -0.6709274079       -3.0014622896        0.3602468960
 H          0.1036507871        1.2917867683        1.5471068618
 H          2.5564599621        1.4419306570        1.5143922104
 H          4.4492114807        0.1286703599        2.1386094531
 H          6.9025658246        0.2641798757        2.1284421393
 H          8.1379817768        0.2068136165       -0.0069598591
 H          6.9001659460        0.0235249389       -2.1338006151
 H          4.4457422890       -0.0913650724       -2.1271637481
 H          2.7007810900       -1.5912438532       -1.4893482538
 H          0.2455772221       -1.6946489201       -1.5021182742
