  23
        -38.06169373
 C         -3.9466978469        1.3240353300        0.5068583598
 C         -3.4508375953        0.3899732687       -0.2906806073
 C         -2.1175215553       -0.2136988079       -0.1718889453
 C         -2.0502988353       -1.6055225997       -0.2404663051
 C         -0.8501223664       -2.2688034563       -0.0868290010
 C          0.3076307888       -1.5464472903        0.1287544687
 C          0.2717959097       -0.1547896810        0.1674138379
 C          1.4964742803        0.6060532262        0.4133424555
 C          2.7180546666        0.2584835939        0.0455305721
 F          3.0808769180       -0.8114368851       -0.6531990370
 F          3.8032450329        0.9837730795        0.3195491426
 C         -0.9447982771        0.5267804574        0.0058781241
 C         -0.9491036514        2.0265886630       -0.0475626268
 H         -4.9522704288        1.6912276923        0.3884309384
 H         -3.3804281960        1.7399664252        1.3228142575
 H         -4.0755676760       -0.0384877305       -1.0654171924
 H         -2.9607611028       -2.1655283474       -0.3986606187
 H         -0.8148293445       -3.3468288966       -0.1295129773
 H          1.2421937128       -2.0641665146        0.2748061827
 H          1.4163322947        1.5387159207        0.9503146582
 H         -0.1188416135        2.3851623842       -0.6532857631
 H         -0.8484812760        2.4519827229        0.9514419189
 H         -1.8755763669        2.3930207499       -0.4802246783
