21
 energy: -34.519460906524 gnorm: 0.000097195660 xtb: 6.4.1 (23d549d)
C        -2.90566284330000    2.63616249370000   -0.25797191310000
C        -2.66755407540000    1.42191132090000    0.21823392520000
C        -1.39379728780000    0.71330913440000    0.08038041970000
C        -0.21263933330000    1.41216598050000    0.15168550070000
C         1.00114874380000    0.71615655630000    0.07268793530000
N         2.23730121560000    1.21507153120000    0.12343316510000
S         3.28343500610000   -0.00021726030000   -0.00068456980000
N         2.23689244260000   -1.21523020190000   -0.12374735090000
C         1.00088862580000   -0.71601054480000   -0.07175635770000
C        -0.21304141630000   -1.41180006950000   -0.14997618670000
C        -1.39412962710000   -0.71281678330000   -0.07766959490000
C        -2.66834442660000   -1.42033726820000   -0.21552875690000
C        -2.90554677330000   -2.63791885190000    0.25271303890000
H        -3.85600488580000    3.12209087240000   -0.11788735710000
H        -2.16750404930000    3.18273223620000   -0.82090724920000
H        -3.44471969060000    0.89069765820000    0.75244597830000
H        -0.20208559720000    2.48068437940000    0.29481135270000
H        -0.20253296790000   -2.48023713880000   -0.29358968080000
H        -3.44728793020000   -0.88512719040000   -0.74308182480000
H        -2.16592721710000   -3.18934765290000    0.80891350280000
H        -3.85665835070000   -3.12217263600000    0.11209328520000
