  41
        -49.69992330
 C         -4.0826504501        2.2795917035        1.6889600949
 C         -4.3235904466        1.3411414626        0.7760337952
 C         -3.3371814342        0.4714000209        0.1949744318
 C         -1.9852394547        0.3956938569        0.4214473272
 C         -1.3297782081       -0.5888018713       -0.3374280080
 C          0.1423680019       -0.8823795655       -0.2846739490
 C          0.9273758412        0.0055228386        0.6771388430
 C          2.4132182847       -0.3477721068        0.6702764283
 C          3.2098834283        0.5471448114        1.6167792768
 C          4.6782075003        0.1400004918        1.7471695133
 C          5.4845491241        0.1949317672        0.4473884137
 C          5.5180550033        1.5628947780       -0.2356901302
 C          6.1650062294        2.6459318540        0.6194224674
 C         -2.1975740548       -1.2808117525       -1.1613410525
 C         -1.8801822972       -2.3475587118       -2.0690943217
 C         -2.7600465013       -2.9781191808       -2.8435816784
 S         -3.8268979240       -0.7014579820       -0.9869809219
 H         -4.8736368589        2.8948571737        2.0796075481
 H         -3.0953909083        2.4648047899        2.0750156163
 H         -5.3329825123        1.1893743815        0.4157402361
 H         -1.4851336513        1.0391849125        1.1206050370
 H          0.5596023468       -0.7688727299       -1.2905964763
 H          0.2823794673       -1.9286475102        0.0063317266
 H          0.5350356343       -0.1153280600        1.6893464838
 H          0.8079940563        1.0521832844        0.3879853049
 H          2.7975848739       -0.2442249567       -0.3460835176
 H          2.5391317036       -1.3913385911        0.9700073305
 H          2.7551296667        0.4992468392        2.6100803266
 H          3.1405265278        1.5828708559        1.2797724880
 H          4.7241986729       -0.8830558759        2.1300431129
 H          5.1526516798        0.7839151445        2.4901650976
 H          5.0824415899       -0.5372479349       -0.2558216573
 H          6.5108033198       -0.1057009424        0.6745927583
 H          4.5055052410        1.8681526684       -0.5045088087
 H          6.0837603645        1.4632428230       -1.1657059860
 H          5.5735228518        2.8478956441        1.5086326436
 H          6.2520209959        3.5713468997        0.0540977305
 H          7.1616827195        2.3399298270        0.9306859803
 H         -0.8364197417       -2.6315187569       -2.0968105412
 H         -3.8051606003       -2.7159626170       -2.8360062484
 H         -2.4633315495       -3.7720104978       -3.5056806607
