  53
        -62.36470420
 C          4.7716533573       -0.1550048462        0.9683302742
 C          3.8150697218        0.0582083035        0.0682646074
 C          2.5068541862       -0.5374297278        0.1031376533
 S          2.1604984417       -1.8269000942        1.2126316102
 C          0.5550835055       -2.0008917595        0.5754978230
 C         -0.3206693964       -3.0234870208        1.0787712971
 C         -0.0771149634       -3.7783046784        2.1471643815
 C          0.3054976938       -1.0864246396       -0.4275792208
 C         -1.0183853367       -1.0271118492       -1.1293031615
 C         -2.1023868096       -0.3860952580       -0.2538767936
 C         -3.4226294676       -0.1802928628       -0.9967482306
 C         -4.1083681135       -1.4634532985       -1.4714238069
 C         -4.4863307356       -2.4439819972       -0.3601384596
 C         -5.4949268595       -1.8726116641        0.6291266981
 C          1.4171699895       -0.2455127074       -0.6919177400
 C          1.4544570607        0.8542106463       -1.7118476472
 C          1.5187939840        2.2548049620       -1.0860713560
 C          0.2847269316        2.5712012743       -0.2471491985
 C          0.3504152613        3.9389763039        0.4321975271
 C          0.2659054110        5.1103366714       -0.5444147252
 C          0.2192987669        6.4466744181        0.1864894071
 H          5.7404653274        0.3045570000        0.8832555310
 H          4.6105173004       -0.7960105012        1.8192309727
 H          4.0070522066        0.7108717840       -0.7730186729
 H         -1.2334034160       -3.1713672601        0.5171822631
 H          0.8196433280       -3.6536497722        2.7311635537
 H         -0.7653694120       -4.5390801361        2.4705887873
 H         -1.3204540444       -2.0404070402       -1.4018545689
 H         -0.9275921287       -0.4544769194       -2.0530751982
 H         -1.7469125719        0.5884208767        0.0854205567
 H         -2.2618981645       -0.9962524403        0.6357972924
 H         -3.2372563587        0.4480893381       -1.8725112839
 H         -4.1044549374        0.3693322226       -0.3451552408
 H         -3.4603715865       -1.9757214153       -2.1859793491
 H         -5.0182613152       -1.1810055164       -2.0077433636
 H         -3.5924199087       -2.7599913125        0.1800386756
 H         -4.9146722367       -3.3351175259       -0.8263230900
 H         -5.0648610872       -1.0504568209        1.1952309191
 H         -5.8074846857       -2.6400308947        1.3339045499
 H         -6.3767513125       -1.5082335917        0.1061030250
 H          0.5723846723        0.7996746428       -2.3502970879
 H          2.3302878604        0.7160102733       -2.3525258306
 H          1.6147182914        2.9835524810       -1.8931306093
 H          2.4037129400        2.3335145970       -0.4520404829
 H          0.1899656749        1.8041032236        0.5256079285
 H         -0.6057934021        2.5268580560       -0.8794266901
 H          1.2775695259        4.0119287967        1.0057197545
 H         -0.4797960882        4.0162325651        1.1391383660
 H         -0.6311889713        5.0022746972       -1.1588795346
 H          1.1299898394        5.1002403403       -1.2107907756
 H         -0.6503470682        6.4958576628        0.8384606104
 H          0.1639157200        7.2700956721       -0.5219613823
 H          1.1105457757        6.5780417308        0.7964049799
