  45
        -66.17313055
 C         -2.7666979444        4.5204625261       -0.2326227561
 C         -3.0213580156        3.0453520180       -0.1450516458
 C         -4.3402099513        2.5785616161       -0.1061142119
 C         -4.6311378221        1.2327976988       -0.0443007230
 C         -1.9665358176        2.1494693022       -0.1041985636
 C         -2.2496301468        0.7939895194       -0.0163855102
 C         -3.5813574341        0.3239724456       -0.0033967435
 C         -3.5095520036       -1.1089907656        0.0403922872
 C         -4.4673318412       -2.1132521647        0.0868093996
 C         -4.0467055858       -3.4267968512        0.1463054750
 C         -2.6905980382       -3.7438504153        0.1755190372
 C         -1.7188609830       -2.7623890831        0.1303000747
 C         -2.1351057894       -1.4417712277        0.0451058678
 N         -1.3849133893       -0.2825291649        0.0121134158
 C          0.0135123129       -0.2107175999        0.0094822331
 C          0.6768572443        0.6184788344        0.9101790680
 C          2.0547886190        0.6933070560        0.8989355369
 C          2.8065825477       -0.0662843625        0.0045386450
 C          4.2742372285        0.0093319044        0.0023074231
 C          4.9229140764        1.2335417383        0.1482977659
 C          6.3034216922        1.3037670484        0.1438154346
 C          7.0591545778        0.1524297485       -0.0011078667
 C          6.4250246169       -1.0703103305       -0.1444124364
 C          5.0445903863       -1.1419684491       -0.1455194422
 C          2.1339415447       -0.8995338666       -0.8872767294
 C          0.7555819308       -0.9672782563       -0.8936401283
 H         -3.2516776372        4.9379507171       -1.1141228998
 H         -1.7016415511        4.7305644063       -0.2897415146
 H         -3.1746274645        5.0277489270        0.6412662654
 H         -5.1447690845        3.2991769890       -0.1360709905
 H         -5.6540375017        0.8876245499       -0.0320104917
 H         -0.9463523305        2.5012548626       -0.1527321487
 H         -5.5183583648       -1.8662455613        0.0808160606
 H         -4.7755294761       -4.2230335891        0.1804525452
 H         -2.3916165037       -4.7799110827        0.2386863165
 H         -0.6706292248       -3.0177603697        0.1722465499
 H          0.1054535163        1.1882742914        1.6277845204
 H          2.5589140334        1.3267876890        1.6139943017
 H          4.3388862840        2.1374255043        0.2444336017
 H          6.7926500144        2.2609985124        0.2518902221
 H          8.1376919114        0.2078284444       -0.0023375630
 H          7.0095076569       -1.9723694269       -0.2537236874
 H          4.5559781906       -2.1009104871       -0.2402320450
 H          2.6981189303       -1.4780148341       -1.6040464993
 H          0.2436277829       -1.5936731555       -1.6089361624
