  46
        -77.30531370
 C          2.1407185074       -6.4792562461        0.5189790218
 O          2.7373428768       -5.4131849749       -0.1771452034
 C          2.1588312866       -4.1809634850       -0.0996475406
 C          1.0058324530       -3.8816550126        0.6173616235
 C          0.5096001952       -2.5904117346        0.6278440160
 C          1.1400869760       -1.5752741072       -0.0836072399
 N          0.6359257339       -0.2650795765       -0.0681801940
 C         -0.7303810349       -0.0323651976       -0.1233366527
 C         -1.2953643040        1.0797894491        0.5097208633
 C         -2.6502684928        1.3149405236        0.4536778605
 C         -3.5025847240        0.4477891480       -0.2365785935
 C         -4.9365480446        0.6366280896       -0.3362262352
 C         -5.6801149338        1.6155326838        0.1603274876
 F         -5.2863312589        2.6665379615        0.8747073468
 F         -7.0039751864        1.6794114370       -0.0025288269
 C         -2.9334638894       -0.6644532065       -0.8653232813
 C         -1.5797288338       -0.9030750693       -0.8140017523
 C          1.5409134754        0.8063547211        0.0042094845
 C          1.3383064520        1.9619357948       -0.7424768889
 C          2.2288406510        3.0183042411       -0.6753201483
 C          3.3547850599        2.9320702659        0.1358600528
 O          4.2978551353        3.9065105146        0.2755122373
 C          4.1375283922        5.1033030822       -0.4451670672
 C          3.5655442289        1.7682766040        0.8780318371
 C          2.6717114789        0.7235862976        0.8177143744
 C          2.2966440022       -1.8798160943       -0.8028815031
 C          2.7990903381       -3.1609942939       -0.8063071263
 H          2.7623483664       -7.3495201229        0.3143496976
 H          1.1224855971       -6.6720698530        0.1651888482
 H          2.1215645862       -6.2953751661        1.5982602855
 H          0.4870055476       -4.6405987408        1.1812505373
 H         -0.3800016411       -2.3671640115        1.1982337285
 H         -0.6564065095        1.7556402606        1.0581374992
 H         -3.0485465896        2.1777447139        0.9617096187
 H         -5.4835797466       -0.1140033563       -0.8889005931
 H         -3.5693327686       -1.3458784517       -1.4118302836
 H         -1.1625244998       -1.7620598334       -1.3180198617
 H          0.4729990755        2.0359753998       -1.3845835895
 H          2.0348235679        3.8978038055       -1.2685183532
 H          4.9906359568        5.7248422838       -0.1777421017
 H          3.2131597600        5.6202737221       -0.1671938543
 H          4.1443932751        4.9270280010       -1.5258814417
 H          4.4410323651        1.7123056856        1.5049741654
 H          2.8425841545       -0.1683936145        1.4014897379
 H          2.7978586405       -1.1011826455       -1.3579542751
 H          3.6918634687       -3.4040829700       -1.3599842240
