  22
        -34.10007824
 C          3.5695506342       -0.2888693048       -0.4756354689
 C          2.5909819370        0.3086499396        0.1901936356
 C          1.1780194793       -0.0623167353        0.1083810967
 C          0.8356548026       -1.4023566333       -0.0389628978
 C         -0.4924853609       -1.7710249304       -0.0621602245
 F         -0.8127754568       -3.0832707455       -0.1778936430
 C         -1.5024786676       -0.8389961518        0.0444487991
 C         -1.1899390422        0.5129077495        0.1480856503
 C         -2.3081880867        1.4557449801        0.2137388485
 C         -2.3780343879        2.6408614683       -0.3803013723
 C          0.1615369507        0.9119911049        0.2003802618
 N          0.4840205976        2.2478645014        0.2871436201
 H          4.5974326692        0.0084131260       -0.3581607844
 H          3.3792980828       -1.0846323035       -1.1753375612
 H          2.8401070606        1.1228581977        0.8621500147
 H          1.6021702056       -2.1577216402       -0.0989224894
 H         -2.5326141361       -1.1592040960        0.0250702934
 H         -3.1662644542        1.0930472083        0.7680047270
 H         -1.5888691928        3.0197797775       -1.0072670376
 H         -3.2591954343        3.2550378349       -0.2975718295
 H         -0.2344471835        2.8421134677        0.6717518704
 H          1.4196023768        2.4628452576        0.5907473749
