  26
        -39.88668709
 C         -4.5574864699        0.0863612631        0.6990608810
 C         -3.6977807218       -0.8226421591        0.2561530421
 C         -2.2863628792       -0.6103001475       -0.0417774021
 C         -1.4729756020       -1.7143745878       -0.3018317436
 C         -0.1357883844       -1.5448609326       -0.5966452736
 C          0.4505506537       -0.2800478700       -0.6325888949
 C          1.9084358264       -0.1712234213       -0.9667595011
 C          2.8274033228       -0.3235789610        0.2471465876
 O          3.9360331380        0.1252477053        0.2836907067
 O          2.3246863467       -1.0255344230        1.2697239440
 C         -0.3496091059        0.8386655898       -0.3614856231
 C          0.1483054517        2.2182996997       -0.3628138972
 C          1.2771787475        2.6491983498        0.1810152262
 C         -1.7032936605        0.6519102291       -0.0961751928
 H         -5.5849223513       -0.1660812449        0.8968596075
 H         -4.2794362858        1.1086504196        0.8900753381
 H         -4.0395806121       -1.8392556730        0.1036909420
 H         -1.8955679759       -2.7083283285       -0.2810792850
 H          0.4675169426       -2.4132090257       -0.8288537693
 H          2.1447778168        0.7794996317       -1.4452797180
 H          2.1927839322       -0.9734842475       -1.6552165850
 H          1.4073253833       -1.3000358449        1.1005202124
 H         -0.5307177523        2.9343748285       -0.8108266439
 H          1.9701774335        2.0024433705        0.6906421070
 H          1.5422174953        3.6926306370        0.1573105668
 H         -2.3113076440        1.5263228192        0.0793323986
