  19
        -30.94181947
 C          3.5198657860        1.0656580738       -0.0519618803
 C          2.8944774902       -0.1027464644        0.0217809954
 C          1.4530776771       -0.3165057573        0.0126105235
 C          0.9551218058       -1.6212501018        0.0487867201
 N         -0.3328786713       -1.9104138058        0.0369205742
 C         -1.1849957160       -0.9184550728       -0.0081832867
 F         -2.4792191489       -1.2747565089       -0.0150605856
 C         -0.8491478344        0.4424559631       -0.0427799050
 C         -1.8926335440        1.4586794035       -0.0903772540
 C         -1.7181883153        2.7570487416        0.1211089942
 C          0.5153758793        0.7160854154       -0.0355649844
 H          4.5942978480        1.1245800552       -0.0392975395
 H          2.9992400851        2.0046468874       -0.1307535824
 H          3.4782844687       -1.0117218444        0.0945534952
 H          1.6198052612       -2.4738409964        0.0844279620
 H         -2.8838039840        1.0790475507       -0.2996345908
 H         -0.7597140671        3.1859238268        0.3596747488
 H         -2.5440237442        3.4449882529        0.0726900465
 H          0.8455197816        1.7415186676       -0.0779409936
  19
        -30.94177012
 C          3.8947528529       -0.2386938437       -0.1255698871
 C          2.8053276794        0.4912751531        0.0782721355
 C          1.4293843647        0.0119995825        0.0460003308
 C          1.0860685173       -1.3405264486       -0.0152200954
 N         -0.1622034417       -1.7680585568       -0.0442512365
 C         -1.1237967999       -0.8804294947       -0.0135295022
 F         -2.3679287419       -1.3834399542       -0.0527532637
 C         -0.9482080185        0.5083322324        0.0548499223
 C         -2.1005451920        1.3989648642        0.0929101795
 C         -2.0661181145        2.7158279190       -0.0678683382
 C          0.3782352193        0.9294612653        0.0899355684
 H          4.8760625802        0.2017076967       -0.0868412776
 H          3.8569142021       -1.2918134229       -0.3438144190
 H          2.9074483911        1.5512653152        0.2774591864
 H          1.8342842097       -2.1188888063       -0.0296640603
 H         -3.0494229281        0.9031734693        0.2491500186
 H         -1.1537943047        3.2580227258       -0.2502670984
 H         -2.9660153518        3.3044884074       -0.0313342990
 H          0.6006449837        1.9842048847        0.1588976728
  19
        -30.94113476
 C          3.9796800104       -0.5146010381        0.0452164957
 C          2.9619932669        0.3302103700       -0.0651190790
 C          1.5471931773       -0.0162283051       -0.0364643193
 C          1.0698602589       -1.3278919032        0.0020676679
 N         -0.2151432656       -1.6229994850        0.0294106783
 C         -1.0917247608       -0.6499193281        0.0210511869
 F         -2.3681626319       -1.0617944087        0.0508923594
 C         -0.7799143561        0.7162252033       -0.0204155108
 C         -1.7334701709        1.8171681027       -0.0349920160
 C         -3.0576149007        1.7409179903        0.0307279702
 C          0.5864391805        0.9950880689       -0.0517974691
 H          4.9979077172       -0.1670939642        0.0155957428
 H          3.8451861972       -1.5746901431        0.1721514527
 H          3.1625995552        1.3885131059       -0.1810523455
 H          1.7333814720       -2.1796283656        0.0056257439
 H         -1.2645074883        2.7919667114       -0.1045344514
 H         -3.5931584210        0.8120963436        0.1043402583
 H         -3.6582536279        2.6347049249        0.0127643862
 H          0.9055684778        2.0284613732       -0.0853254458
