  26
        -39.88500817
 C         -4.5053904969       -1.3827620397        0.2874798498
 C         -3.6418691891       -0.4062497125        0.5380616707
 C         -2.2458338293       -0.3547214162        0.1223129789
 C         -1.5882889880       -1.4224061495       -0.4903193986
 C         -0.2626463350       -1.3125097198       -0.8519214724
 C          0.4576529772       -0.1404546359       -0.6440108477
 C          1.9237975807       -0.1296947911       -0.9913335830
 C          2.7247648322       -0.5517104226        0.2373412316
 O          3.3489352530       -1.5682910721        0.3104625608
 O          2.6739928787        0.3155905757        1.2580815244
 C         -0.1861920136        0.9404068750       -0.0309928692
 C          0.4647201724        2.2355484935        0.2487363190
 C          1.0400578180        3.0153970328       -0.6550310113
 C         -1.5161648145        0.8083576861        0.3524871050
 H         -5.5231743426       -1.3309950709        0.6339570187
 H         -4.2430268249       -2.2647903124       -0.2709772504
 H         -3.9764051097        0.4596833095        1.0965665402
 H         -2.1093342127       -2.3489836558       -0.6704622476
 H          0.2374714783       -2.1561183053       -1.3045592780
 H          2.2626302881        0.8590137116       -1.2997449879
 H          2.1277816117       -0.8441377899       -1.7883466546
 H          2.1102926656        1.0819451256        1.0596788446
 H          0.3700282064        2.5824635825        1.2727973555
 H          1.0908621423        2.7439735566       -1.6970026520
 H          1.4594308427        3.9718093424       -0.3920929864
 H         -1.9996707473        1.6491037728        0.8313294484
