  49
        -66.00215118
 C         -6.3847208222       -1.2976543657        0.2990087242
 C         -5.1595333199       -1.4930211304        0.7737462463
 C         -3.9212349751       -0.9484701324        0.2392532414
 C         -3.8568775325       -0.1463896281       -0.8997399561
 C         -2.6547906658        0.3472093186       -1.3612221331
 C         -1.4525727125        0.0814198178       -0.7018050480
 C         -1.5204894131       -0.7183149632        0.4425895821
 C         -2.7206697364       -1.2295151887        0.8930578492
 S         -0.0684389557       -1.0328510722        1.4119249207
 C          1.1554924455       -0.9269654744        0.1337021119
 C          2.3366412694       -1.6163452113        0.3170126301
 C          3.3695013053       -1.5384181189       -0.6176938666
 C          4.6443811534       -2.2191947488       -0.4536926681
 C          5.0344445457       -2.9353582445        0.5948153427
 C          3.1420545646       -0.7713432532       -1.7603645971
 C          1.9538214074       -0.0971334850       -1.9518439486
 C          0.9370079785       -0.1312432745       -0.9952499153
 N         -0.2444385295        0.5784607328       -1.1801017321
 C         -0.2170005782        1.8781279138       -1.8173075359
 C         -0.7267018559        2.9672928195       -0.8629335400
 C         -0.0156324360        2.9476724564        0.4916039766
 C          1.4840639978        3.2226396626        0.3981127863
 C          2.1641445482        3.2528649808        1.7675839382
 C          2.2726056448        1.8719039842        2.4039106147
 H         -7.2433529733       -1.7471117536        0.7672821516
 H         -6.5858176860       -0.6889383910       -0.5657013699
 H         -5.0316321779       -2.1159733411        1.6507691020
 H         -4.7574773693        0.0948394342       -1.4418719989
 H         -2.6498286619        0.9507459347       -2.2548956422
 H         -2.7200500541       -1.8347293804        1.7878798516
 H          2.4499060475       -2.2014327328        1.2156160719
 H          5.3224291314       -2.1039835625       -1.2910529750
 H          4.4148642740       -3.0847423545        1.4620416647
 H          6.0040587922       -3.4019279946        0.6228365599
 H          3.9096026005       -0.7062941669       -2.5182015420
 H          1.8099631861        0.4603844411       -2.8649929908
 H         -0.8066865841        1.8839244556       -2.7410894821
 H          0.8139839219        2.1045666498       -2.0829460184
 H         -1.7973155731        2.8309653189       -0.6959878726
 H         -0.5811927530        3.9361372817       -1.3453593784
 H         -0.1813454369        1.9803366745        0.9661818856
 H         -0.4740028794        3.7057468620        1.1311058051
 H          1.6349769403        4.1855001421       -0.0977881920
 H          1.9708488143        2.4540375088       -0.2055667671
 H          1.6119945522        3.9205080683        2.4331083159
 H          3.1698703737        3.6633720744        1.6481691538
 H          1.2912369923        1.4530245719        2.6087255341
 H          2.8160538274        1.9312751862        3.3441474546
 H          2.8042783371        1.1889983764        1.7435446154
  49
        -66.00160091
 C         -5.6601504650       -2.2934524595        1.4186527500
 C         -5.3801666082       -1.5576171848        0.3488230808
 C         -4.0828048218       -1.0115651632       -0.0182169890
 C         -3.9711972850       -0.2140265881       -1.1572312250
 C         -2.7634834152        0.3310516351       -1.5425653787
 C         -1.6067390198        0.1250457684       -0.7898506379
 C         -1.7178224000       -0.6857202810        0.3441436918
 C         -2.9207629670       -1.2475819533        0.7176321764
 S         -0.3062160893       -0.9595063802        1.3826490429
 C          0.9681774503       -0.8470207704        0.1518637214
 C          2.1411889393       -1.5415797045        0.3622146639
 C          3.2049239837       -1.4420403684       -0.5350846975
 C          4.4741408027       -2.1261695127       -0.3424937307
 C          4.8179658374       -2.8901632004        0.6882394818
 C          3.0196622757       -0.6453967158       -1.6653326273
 C          1.8398874177        0.0357231133       -1.8837251010
 C          0.7892703656       -0.0295897778       -0.9677223266
 N         -0.3895394355        0.6843792443       -1.1612736792
 C         -0.3515478477        1.9634553424       -1.8392216284
 C          0.6717312090        2.8983182445       -1.1851626759
 C          0.3596048356        3.1393230679        0.2919340747
 C          1.5413918718        3.7582430797        1.0400282818
 C          2.6554349830        2.7575856746        1.3596887868
 C          2.2944534526        1.8124987143        2.4993969091
 H         -6.6581046227       -2.6513405347        1.6047153001
 H         -4.9184385867       -2.5668500473        2.1489746878
 H         -6.1778742355       -1.3153404866       -0.3433548202
 H         -4.8480607102       -0.0226674951       -1.7590234750
 H         -2.7155418370        0.9191646486       -2.4461813654
 H         -2.9456119311       -1.8564501650        1.6071135125
 H          2.2246627555       -2.1444846693        1.2520466401
 H          5.1898749706       -1.9717449488       -1.1413298952
 H          4.1588578770       -3.0828837693        1.5169040728
 H          5.7873187605       -3.3553319012        0.7397630520
 H          3.8168133912       -0.5585431863       -2.3899089461
 H          1.7313357923        0.6262619960       -2.7799478995
 H         -1.3405801319        2.4145411866       -1.7413889285
 H         -0.1319799532        1.8505159310       -2.9091774010
 H          0.6665141864        3.8472822841       -1.7252892898
 H          1.6689789839        2.4691584734       -1.2792646618
 H          0.0931513694        2.1953466626        0.7678743777
 H         -0.5073885575        3.7997070682        0.3703812597
 H          1.1845902799        4.1890016237        1.9780831867
 H          1.9495692213        4.5740426253        0.4379629212
 H          3.5541450372        3.3135354688        1.6374633338
 H          2.8976496633        2.1694100863        0.4721582831
 H          2.0912917633        2.3727301538        3.4097051997
 H          3.1159106637        1.1264027706        2.6928621644
 H          1.4156164665        1.2206413291        2.2597500541
  49
        -65.99971578
 C         -6.4292834651       -1.5033683955        0.0133040994
 C         -5.2281105645       -1.7767669565        0.5102855071
 C         -3.9653298092       -1.1664432518        0.1239834327
 C         -3.8521445767       -0.1783404182       -0.8535894785
 C         -2.6287774266        0.3679358997       -1.1823528742
 C         -1.4576838073       -0.0254388683       -0.5318318561
 C         -1.5710071950       -1.0250129836        0.4385106186
 C         -2.7915488509       -1.5864962227        0.7522282441
 S         -0.1368721993       -1.5575525275        1.3357973201
 C          1.0775501989       -1.3041714919        0.0666704055
 C          2.1941840978       -2.1137929863        0.0594069873
 C          3.2166051682       -1.9184439219       -0.8699942694
 C          4.4257004337       -2.7265499465       -0.9039111005
 C          4.7414517712       -3.7216392401       -0.0826596351
 C          3.0499057152       -0.8936144177       -1.8016264585
 C          1.9239575694       -0.0961548797       -1.8061670065
 C          0.9114679764       -0.2723969270       -0.8623097679
 N         -0.2238012495        0.5329130413       -0.8485571158
 C         -0.1379066525        1.9021732931       -1.3094068951
 C          0.9339028081        2.6778142280       -0.5353316284
 C          0.6161968582        2.7286834547        0.9579902660
 C          1.7649532309        3.2889894376        1.7962395059
 C          2.1622011853        4.7286877503        1.4659724579
 C          1.0406228384        5.7324635624        1.7059610827
 H         -7.3088533406       -2.0138370728        0.3658829949
 H         -6.5892974499       -0.7695358997       -0.7577648524
 H         -5.1418703567       -2.5287426950        1.2852755433
 H         -4.7297622798        0.1657098968       -1.3775191488
 H         -2.5805831418        1.1075771034       -1.9668938215
 H         -2.8287130730       -2.3490054277        1.5163491893
 H          2.2686983973       -2.8871925215        0.8068537014
 H          5.1179377050       -2.4602644169       -1.6939467194
 H          4.1026477584       -4.0373040981        0.7238745669
 H          5.6658044017       -4.2626011606       -0.1903171176
 H          3.8176679463       -0.7196332791       -2.5420305549
 H          1.8292312899        0.6724808952       -2.5567528724
 H         -1.1027259674        2.3744856830       -1.1176714042
 H          0.0587982528        1.9558300970       -2.3882391409
 H          0.9796399947        3.6869340577       -0.9471296439
 H          1.9088458861        2.2086950380       -0.6776507958
 H          0.4104628001        1.7149071583        1.3091315668
 H         -0.2877328416        3.3185150619        1.1206084373
 H          2.6393146819        2.6467508259        1.6619337296
 H          1.4790680511        3.2378756325        2.8495567406
 H          2.4934990092        4.7923518600        0.4280024263
 H          3.0146807497        4.9966173021        2.0949236511
 H          0.2132516260        5.5682883423        1.0204158353
 H          1.4043259759        6.7469559943        1.5582114742
 H          0.6663918173        5.6475963688        2.7239270097
  49
        -65.99967597
 C         -5.9182419970       -2.2913417678       -0.9551643919
 C         -5.4286732519       -1.1083660587       -0.6009986753
 C         -4.0493515635       -0.8059283331       -0.2549999296
 C         -3.6927075448        0.4929985681        0.0982713033
 C         -2.3930452511        0.8258504794        0.4243414037
 C         -1.3668379948       -0.1233709865        0.4360888785
 C         -1.7382327621       -1.4324034686        0.1029424190
 C         -3.0326175005       -1.7603719086       -0.2460681403
 S         -0.5896722940       -2.7757113909        0.1849671691
 C          0.9366464783       -1.8924266105        0.0415594422
 C          2.0301414960       -2.6316247369       -0.3618290400
 C          3.3061606997       -2.0722752007       -0.4221566354
 C          4.4883946872       -2.8159405546       -0.8259029211
 C          4.5374620945       -4.0906231556       -1.1964379257
 C          3.4204847701       -0.7320450654       -0.0618607396
 C          2.3229049357        0.0139037648        0.3193361839
 C          1.0394537342       -0.5373473600        0.3818389770
 N         -0.0605856244        0.2219253929        0.7749332563
 C          0.1741769789        1.4851954125        1.4442134377
 C          0.3706457661        2.6868734963        0.5082567238
 C          0.7126203858        3.9421426631        1.3079878570
 C          0.8374373663        5.1940168350        0.4393100093
 C          2.0478887457        5.1704720570       -0.4920471976
 C          2.1943613026        6.4842730229       -1.2501159407
 H         -6.9602246263       -2.4160571610       -1.1947405403
 H         -5.3104910495       -3.1771138900       -1.0207520512
 H         -6.0970252549       -0.2565700824       -0.5550828928
 H         -4.4467950841        1.2669191408        0.1142230549
 H         -2.1916522829        1.8522551418        0.6774852459
 H         -3.2422021444       -2.7897264838       -0.4895466400
 H          1.8723974343       -3.6698464019       -0.6067594166
 H          5.4050985182       -2.2382081075       -0.8114920493
 H          3.6654924413       -4.7203343750       -1.2331024793
 H          5.4662726118       -4.5549695701       -1.4799390758
 H          4.3899820009       -0.2551539094       -0.0841861132
 H          2.4894046086        1.0458611260        0.5752779380
 H          1.0594775737        1.3684465104        2.0763218828
 H         -0.6698167036        1.6736495923        2.1140956899
 H         -0.5356013083        2.8632819234       -0.0729109336
 H          1.1658043138        2.4689637562       -0.2040972057
 H          1.6495579598        3.7849944010        1.8484125352
 H         -0.0705947770        4.1079335668        2.0525392586
 H          0.9204610944        6.0642403665        1.0950435424
 H         -0.0721343676        5.3149220352       -0.1537114244
 H          1.9479437375        4.3555190694       -1.2109313255
 H          2.9507691759        4.9894899152        0.0961266852
 H          1.3082409954        6.6781124099       -1.8507182233
 H          3.0564675108        6.4507308541       -1.9121033939
 H          2.3254149894        7.3131616259       -0.5577132782
  49
        -65.99962844
 C         -6.2820506972       -0.9082498226        0.0133882488
 C         -5.1207861144       -1.2903535868        0.5330988066
 C         -3.7972067773       -0.8312597917        0.1412462379
 C         -3.5718537185        0.1167672052       -0.8564257963
 C         -2.2947062593        0.5158923461       -1.1913309338
 C         -1.1746604987        0.0016164208       -0.5349323718
 C         -1.4028967531       -0.9446230786        0.4680787670
 C         -2.6791446814       -1.3583319829        0.7899316446
 S         -0.0442305065       -1.5923665417        1.4078045647
 C          1.2053421145       -1.5185681054        0.1516316569
 C          2.2374970726       -2.4331096061        0.1968719236
 C          3.2839856001       -2.3914426937       -0.7259918655
 C          4.3645152050       -3.3586291980       -0.6109923570
 C          5.4580794105       -3.4218985446       -1.3624138704
 C          3.2242338661       -1.4153011120       -1.7201063019
 C          2.1800309116       -0.5158744846       -1.7790756204
 C          1.1555145162       -0.5251826135       -0.8302460058
 N          0.1158221812        0.3979493266       -0.8729272682
 C          0.3465225964        1.7331636023       -1.3812594109
 C         -0.1369484192        2.7931103880       -0.3850997619
 C          0.6012118103        2.6780462824        0.9471689837
 C          0.0775652681        3.6414689907        2.0118654937
 C          0.2544492226        5.1251022176        1.6835527778
 C          1.7139957440        5.5392936332        1.5360481065
 H         -7.2136935819       -1.3110550146        0.3716722247
 H         -6.3570156947       -0.1878532700       -0.7829331272
 H         -5.1211157101       -2.0219787681        1.3320433673
 H         -4.4048065039        0.5498506759       -1.3873791937
 H         -2.1653908120        1.2385973790       -1.9813079895
 H         -2.8029958353       -2.0871901936        1.5774408690
 H          2.2368056818       -3.1743936329        0.9824993022
 H          4.2329374760       -4.0832843639        0.1833915244
 H          5.6566936361       -2.7311320974       -2.1637353425
 H          6.2056866096       -4.1786137986       -1.1981046063
 H          3.9965502300       -1.3613765889       -2.4709239981
 H          2.1548153139        0.2024167231       -2.5843152118
 H         -0.1304839672        1.8822508314       -2.3583388838
 H          1.4228307607        1.8566155774       -1.5089620237
 H         -1.2091245581        2.6833324723       -0.2129703343
 H          0.0370427429        3.7735724221       -0.8303777761
 H          1.6685606193        2.8432461953        0.7888290282
 H          0.4829816517        1.6609372928        1.3277689932
 H          0.5943576338        3.4289300413        2.9508194582
 H         -0.9856287114        3.4430398676        2.1700011273
 H         -0.1955550336        5.7055145164        2.4926689510
 H         -0.2888019375        5.3705661903        0.7693092630
 H          2.2810550021        5.2537104132        2.4194739300
 H          1.7895660042        6.6176118848        1.4143661519
 H          2.1700924959        5.0703095160        0.6679805732
  49
        -65.99881992
 C         -6.1896820793       -0.4458549461       -0.2208477260
 C         -5.1233449112       -1.2380262283       -0.2083416362
 C         -3.7457929804       -0.8379222650        0.0289411597
 C         -3.3531504486        0.4657281041        0.3200376576
 C         -2.0271055407        0.7889354898        0.5259546401
 C         -1.0082730064       -0.1684164078        0.4719610979
 C         -1.4141545924       -1.4816622797        0.2057975535
 C         -2.7376736038       -1.8007536373       -0.0229552143
 S         -0.2736263054       -2.8337331865        0.2278752544
 C          1.2398421687       -1.9681168687       -0.0744899981
 C          2.2888116554       -2.7267413340       -0.5527897122
 C          3.5569763006       -2.1788331641       -0.7438580681
 C          4.6945402419       -2.9429946241       -1.2293653070
 C          4.7048138041       -4.2291179126       -1.5615398816
 C          3.7094983304       -0.8291219080       -0.4369624709
 C          2.6540596286       -0.0645830465        0.0188325889
 C          1.3799569350       -0.6047619136        0.2155016433
 N          0.3250954733        0.1738311801        0.6861012653
 C          0.6213097949        1.4532896100        1.2979239647
 C          0.7124207040        2.6328996184        0.3186082161
 C          0.8534816082        3.9510840082        1.0760534028
 C          1.0625575676        5.1556226574        0.1571055304
 C         -0.0964348020        5.4459380047       -0.7984192415
 C         -1.4020066758        5.7717140831       -0.0823931269
 H         -7.1745408934       -0.8373931992       -0.4086891189
 H         -6.1304160368        0.6150353663       -0.0483356955
 H         -5.2553554464       -2.2972020515       -0.3933595633
 H         -4.0890791108        1.2515089706        0.3856578005
 H         -1.7970181531        1.8183397792        0.7392860345
 H         -2.9856225797       -2.8329323861       -0.2233742230
 H          2.1046898999       -3.7702824915       -0.7525834819
 H          5.6109856602       -2.3713743141       -1.3171401362
 H          3.8308943721       -4.8540008971       -1.4983734473
 H          5.6022394911       -4.7083425399       -1.9131854442
 H          4.6750170352       -0.3600721238       -0.5618772549
 H          2.8452008126        0.9741149370        0.2255234688
 H          1.5615498716        1.3549673287        1.8480514412
 H         -0.1582273879        1.6557000854        2.0386290888
 H         -0.1787764553        2.6536225014       -0.3080072052
 H          1.5659803762        2.5054986927       -0.3488909095
 H          1.7127911923        3.8801950765        1.7485117688
 H         -0.0291722685        4.1118470610        1.6976989715
 H          1.9678252912        4.9941767489       -0.4335954544
 H          1.2296685970        6.0377380680        0.7801277222
 H         -0.2487532751        4.5969647797       -1.4670180232
 H          0.1860931587        6.2992910495       -1.4195670494
 H         -1.7847505002        4.9069715478        0.4535737952
 H         -2.1573961024        6.0818127680       -0.8008121755
 H         -1.2541041160        6.5807414594        0.6298887695
  49
        -65.99859125
 C         -6.1074669057       -0.7066797394       -0.1733905821
 C         -5.0083839244       -1.3801003506        0.1477597396
 C         -3.6356729832       -0.9118380547        0.0358030956
 C         -3.2845422364        0.3355076675       -0.4794946151
 C         -1.9663615475        0.7340404166       -0.5586446062
 C         -0.9292273107       -0.0853958980       -0.1081074050
 C         -1.2826027200       -1.3377431802        0.4017980666
 C         -2.5996702389       -1.7446570789        0.4618664406
 S         -0.0337023515       -2.4197168835        1.0455811662
 C          1.3031862898       -1.9385275156       -0.0156622814
 C          2.2662017198       -2.8781975115       -0.3188165409
 C          3.3715431218       -2.5475769749       -1.1038950672
 C          4.4280346332       -3.4933155569       -1.4286069606
 C          4.5296114702       -4.7486615812       -1.0065468357
 C          3.4414165065       -1.2444450067       -1.5957614600
 C          2.4667943215       -0.3099751748       -1.3100349865
 C          1.3815707844       -0.6253362425       -0.4912913530
 N          0.4036294650        0.3128014237       -0.1732997064
 C          0.7288073351        1.7235421331       -0.1416861062
 C          0.1981059286        2.3705044668        1.1420119212
 C          0.5920646194        3.8422034631        1.2666385398
 C         -0.1608333736        4.7478339516        0.2930333320
 C          0.2171161271        6.2234533452        0.4329226656
 C         -0.2578070910        6.8474715847        1.7399340018
 H         -7.0843826512       -1.1425699866       -0.0542878836
 H         -6.0849164884        0.2961571601       -0.5639534666
 H         -5.1066901127       -2.3853261675        0.5393601739
 H         -4.0499172948        1.0080443372       -0.8333737542
 H         -1.7406180859        1.6995703046       -0.9824303815
 H         -2.8211154227       -2.7189929814        0.8720360680
 H          2.1533052109       -3.8719503671        0.0837252681
 H          5.1964156291       -3.0966884088       -2.0816751303
 H          3.8060458871       -5.2045143114       -0.3531987659
 H          5.3549957134       -5.3726123666       -1.3033638321
 H          4.2730273695       -0.9576984473       -2.2234147643
 H          2.5479190736        0.6766738457       -1.7394576844
 H          0.3483146055        2.2427554672       -1.0291218149
 H          1.8159436558        1.8142842200       -0.1369988686
 H          0.6076238219        1.8147485367        1.9889447214
 H         -0.8884384469        2.2820288981        1.1866578803
 H          1.6673675059        3.9479113530        1.1030512884
 H          0.3789358466        4.1632754797        2.2869835561
 H         -1.2354624530        4.6360540320        0.4563769571
 H          0.0544576542        4.4371975393       -0.7314854937
 H         -0.2268943008        6.7749468720       -0.3993559300
 H          1.3019010875        6.3258030068        0.3542073301
 H         -1.3320267179        6.7189061104        1.8543906776
 H         -0.0377134671        7.9125018235        1.7495342701
 H          0.2365146201        6.3941050764        2.5949968677
  49
        -65.99828342
 C         -5.9204658614       -2.8828206063       -0.0006147981
 C         -5.5123360044       -1.7259966110       -0.5100666736
 C         -4.1772227834       -1.1558818529       -0.4185790940
 C         -3.9207212954        0.0876652519       -0.9956459184
 C         -2.6716176682        0.6709496423       -0.9321201939
 C         -1.6177967303        0.0497369691       -0.2604725621
 C         -1.8728256368       -1.2050392780        0.3028787830
 C         -3.1154739369       -1.7977136064        0.2203167967
 S         -0.5964213829       -2.0533249475        1.1953438793
 C          0.8056296251       -1.4474758648        0.2933951513
 C          1.9216564739       -2.2530189415        0.2022701227
 C          3.0797285303       -1.8073870956       -0.4361047678
 C          4.2907968692       -2.6067890785       -0.5367082596
 C          4.4806812293       -3.8285428692       -0.0513075944
 C          3.0507834285       -0.5314463065       -0.9989994354
 C          1.9273494800        0.2659925624       -0.9251049181
 C          0.7769366935       -0.1649554006       -0.2632062228
 N         -0.3587173456        0.6350453631       -0.1696385790
 C         -0.2177636640        2.0764715230       -0.1858153974
 C          0.6722799006        2.5409524996        0.9715172417
 C          0.7256847943        4.0632096470        1.0982663168
 C          1.3965211085        4.7862309236       -0.0725469865
 C          2.8549344342        4.3979647121       -0.3227394679
 C          3.7715603419        4.7149696724        0.8526965457
 H         -6.9355132600       -3.2196920806       -0.1225473699
 H         -5.2709115824       -3.5370492540        0.5546000549
 H         -6.2214763764       -1.1152820531       -1.0562831201
 H         -4.7143472739        0.6059688918       -1.5145476503
 H         -2.5126049280        1.6195869042       -1.4213899143
 H         -3.2516408411       -2.7625407098        0.6817373197
 H          1.8845370179       -3.2290107195        0.6587583119
 H          5.1010741347       -2.1235911062       -1.0698506575
 H          3.7206306361       -4.3662011584        0.4885435035
 H          5.4187683587       -4.3407129603       -0.1791626344
 H          3.9259829770       -0.1570425033       -1.5107857271
 H          1.9436577211        1.2355554924       -1.3969009259
 H         -1.2084021446        2.5101867158       -0.0422812556
 H          0.1727418458        2.4302032625       -1.1468651976
 H          1.6788113729        2.1394261659        0.8571200545
 H          0.2617617877        2.1268745288        1.8959647516
 H          1.2535481072        4.3135856871        2.0196277638
 H         -0.2940584346        4.4450910890        1.1962824856
 H          1.3546264967        5.8598269601        0.1283339540
 H          0.8238061480        4.6087188684       -0.9854787054
 H          3.2041545976        4.9471011887       -1.2009283662
 H          2.9259967006        3.3346333827       -0.5569013304
 H          3.6796250352        5.7613723538        1.1360399362
 H          4.8078571894        4.5228817928        0.5838758455
 H          3.5285572960        4.1004767468        1.7156130417
  49
        -65.99821620
 C         -5.9994649388       -0.6312954632        0.0487024671
 C         -4.8867841385       -1.2852569942        0.3630382094
 C         -3.5211655171       -0.8135195935        0.1936602579
 C         -3.1928392455        0.4098360782       -0.3899058012
 C         -1.8798104794        0.8104098167       -0.5237571830
 C         -0.8254691783        0.0203122340       -0.0618274813
 C         -1.1562258712       -1.2090667195        0.5147082431
 C         -2.4683902272       -1.6199336087        0.6293101469
 S          0.1181824847       -2.2544255397        1.1689944212
 C          1.4189048139       -1.8152937033        0.0459236747
 C          2.3766933130       -2.7634904412       -0.2467546427
 C          3.4561526661       -2.4620820834       -1.0782873084
 C          4.5054812638       -3.4177062267       -1.3971110752
 C          4.6145303856       -4.6610859045       -0.9426644335
 C          3.5066189299       -1.1795262125       -1.6238516569
 C          2.5364013304       -0.2374477864       -1.3485399566
 C          1.4763289200       -0.5233085273       -0.4871976432
 N          0.5018949955        0.4225942003       -0.1832075614
 C          0.8222034510        1.8348480578       -0.2084893055
 C          0.3196550510        2.5240905149        1.0641393327
 C          0.8502109645        3.9504771522        1.2073562057
 C          0.4079899426        4.9185265072        0.1070461262
 C         -1.1052917862        5.0937383657       -0.0303786290
 C         -1.7591403492        5.6695761835        1.2198657131
 H         -6.9693125098       -1.0686775024        0.2119983251
 H         -5.9954455938        0.3564751961       -0.3790843281
 H         -4.9665370125       -2.2754608711        0.7950809554
 H         -3.9720457486        1.0596487790       -0.7559976700
 H         -1.6700140758        1.7519816852       -1.0060417220
 H         -2.6722046911       -2.5756460004        1.0894197636
 H          2.2815098799       -3.7395078373        0.2012053651
 H          5.2602603971       -3.0408376922       -2.0771902139
 H          3.9037451867       -5.0981398184       -0.2629637722
 H          5.4331765604       -5.2940895642       -1.2389470005
 H          4.3185624644       -0.9159992450       -2.2864546124
 H          2.6004246891        0.7315066174       -1.8192475558
 H          0.4186110031        2.3223889646       -1.1035902877
 H          1.9091630259        1.9270878181       -0.2320601392
 H          0.6621681159        1.9375921057        1.9205085646
 H         -0.7697108631        2.5255137185        1.0891807637
 H          1.9430710554        3.9210180813        1.2153862955
 H          0.5310811165        4.3403598479        2.1751100459
 H          0.8121973366        4.5862498164       -0.8516697808
 H          0.8509919095        5.8945673525        0.3210438026
 H         -1.5728131967        4.1382456340       -0.2733958260
 H         -1.2923061709        5.7686268869       -0.8695852327
 H         -1.6933165813        4.9737876318        2.0522187304
 H         -2.8111526721        5.8742224002        1.0341781385
 H         -1.2750546885        6.6003183096        1.5080302832
  49
        -65.99698367
 C         -5.6744794905       -1.6460067604       -1.1223718690
 C         -5.1717453759       -0.5767721444       -0.5153071210
 C         -3.8012632933       -0.3954280212       -0.0646786760
 C         -3.4342499973        0.7882552075        0.5716900627
 C         -2.1428795908        1.0061443752        1.0082182890
 C         -1.1407152488        0.0444156777        0.8494548085
 C         -1.5203280070       -1.1513440861        0.2281666804
 C         -2.8063025399       -1.3594052595       -0.2277661480
 S         -0.3929158233       -2.5058891887        0.0577948260
 C          1.1497454726       -1.6411056644        0.1413558049
 C          2.2479805181       -2.2878442987       -0.3882624365
 C          3.5273753152       -1.7388504192       -0.3018987712
 C          4.7148600248       -2.3923807010       -0.8282414107
 C          4.7694475346       -3.5702464259       -1.4399230806
 C          3.6421404116       -0.5031172177        0.3310491914
 C          2.5409736238        0.1547640810        0.8412542219
 C          1.2571142476       -0.3927624554        0.7656165911
 N          0.1570704529        0.2751049348        1.2946834932
 C          0.3857744995        1.3434500421        2.2437164404
 C          0.6209501297        2.7529813158        1.6387806698
 C          0.5589890113        2.8153867135        0.1112564347
 C          0.7680078918        4.2445868745       -0.3851562176
 C          0.7642480197        4.3510743928       -1.9103137599
 C         -0.6005896207        4.0679042237       -2.5275993006
 H         -6.7083615391       -1.6854394819       -1.4193623115
 H         -5.0863367500       -2.5188272519       -1.3469854430
 H         -5.8212351270        0.2680470890       -0.3183932590
 H         -4.1730213958        1.5619441102        0.7246934973
 H         -1.9218167521        1.9486931103        1.4800143322
 H         -3.0280305532       -2.3046754008       -0.6967508560
 H          2.0916705775       -3.2477014109       -0.8539934669
 H          5.6315311274       -1.8317031216       -0.6879043438
 H          3.8986273622       -4.1792096907       -1.6103565932
 H          5.7024117108       -3.9723711768       -1.7956744586
 H          4.6142139206       -0.0400020836        0.4229005524
 H          2.6955780054        1.1144929562        1.3046721843
 H          1.2454116497        1.0523208208        2.8529093118
 H         -0.4770687193        1.3659815012        2.9143951741
 H          1.5966668308        3.1241223975        1.9610165098
 H         -0.1243315709        3.4430555017        2.0411751788
 H         -0.4095525497        2.4537380683       -0.2329383708
 H          1.3284810213        2.1744284539       -0.3230743430
 H          1.7258077140        4.6139630740       -0.0090779588
 H         -0.0154979982        4.8892520853        0.0210633286
 H          1.4999402310        3.6560174111       -2.3213608870
 H          1.0731250411        5.3615854464       -2.1885138090
 H         -0.9031347950        3.0375352544       -2.3590418446
 H         -0.5703542964        4.2382187870       -3.6013321298
 H         -1.3555510409        4.7235332600       -2.0986095061
