  16
        -24.66460525
 C         -3.3959816562        0.7634953959       -0.0016962563
 C         -2.6648039796       -0.3471771348       -0.0015296767
 C         -1.2294040487       -0.3865880087        0.0001065543
 C         -0.4262285045       -1.5041496161       -0.0010629685
 N          0.8949336428       -1.2874107439       -0.0003218378
 C          1.1897712154       -0.0272133195        0.0015514163
 C          2.5114429733        0.5349364731        0.0016934331
 C          3.6160123391       -0.2071578760       -0.0047469654
 S         -0.2216329270        1.0272091925        0.0028184421
 H         -4.4710074954        0.7321775282       -0.0032915738
 H         -2.9371513670        1.7386604172       -0.0001472710
 H         -3.1392819921       -1.3203839021       -0.0031507638
 H         -0.7892916370       -2.5168020477       -0.0025632484
 H          2.5570796351        1.6154322213        0.0067981892
 H          3.5543322534       -1.2813194910       -0.0101591668
 H          4.5954720358        0.2377227042       -0.0049236896
