  36
        -61.85421569
 F         -6.1975454430       -1.1167643467       -0.0800499138
 C         -4.9494900155       -0.6436965897       -0.0514173262
 F         -4.9978677123        0.6836398235        0.0139824385
 C         -3.8798251885       -1.4248032968       -0.0851491973
 C         -2.4775101319       -1.0456886622       -0.0599993312
 C         -2.0473921906        0.2780368433       -0.0088866626
 C         -0.6887184767        0.5426582863        0.0162939454
 C          0.0714303814        1.7616425136        0.0479252487
 C         -0.2791877944        3.1044338671        0.0918089568
 C          0.7277278053        4.0478020918        0.1367909378
 C          2.0675701903        3.6661945004        0.1530988549
 C          2.4405912852        2.3362998484        0.1100481603
 C          1.4334970977        1.3847581555        0.0411584310
 N          1.5258650792        0.0054754014        0.0121511243
 C          2.7166816866       -0.7367773810       -0.0043587512
 C          2.9099655902       -1.7679210543        0.9098725425
 C          4.0827933790       -2.4997666317        0.8857557984
 C          5.0714490601       -2.2049153462       -0.0382510530
 C          4.8819681574       -1.1755926866       -0.9453659812
 C          3.7084483495       -0.4445995561       -0.9357628425
 C          0.2522474726       -0.5147233310       -0.0010795777
 C         -0.1701031642       -1.8358263367       -0.0763277504
 C         -1.5254749672       -2.0799262652       -0.1007809064
 H         -4.0925709536       -2.4830180551       -0.1371438907
 H         -2.7493010537        1.0947220251        0.0063685601
 H         -1.3177519023        3.3979828964        0.0949412595
 H          0.4782109009        5.0977497292        0.1690895086
 H          2.8325581493        4.4268199194        0.2041627639
 H          3.4810154757        2.0498970949        0.1406282706
 H          2.1456844895       -1.9799171510        1.6426535078
 H          4.2284214072       -3.2987414796        1.5975114959
 H          5.9874612822       -2.7758222245       -0.0513139439
 H          5.6486398929       -0.9452160504       -1.6701362420
 H          3.5472935833        0.3445425371       -1.6549257608
 H          0.5384924413       -2.6485633887       -0.1258055170
 H         -1.8723473648       -3.1012617972       -0.1569387234
  36
        -61.85415679
 F         -6.2122053766       -1.2660500559       -0.2464057421
 C         -4.8809575617       -1.3660115948       -0.2297747820
 F         -4.5488900537       -2.6468344542       -0.3642759490
 C         -4.0808755506       -0.3181289976       -0.0987537598
 C         -2.6292235770       -0.2738684115       -0.0654878236
 C         -2.0211924051        0.9742732026        0.0551656038
 C         -0.6403337833        1.0597011087        0.0837239952
 C          0.2787316028        2.1563087881        0.2137864945
 C          0.1172596694        3.5304334615        0.3313563471
 C          1.2442667992        4.3229669337        0.4171821874
 C          2.5192620682        3.7630728252        0.3724697998
 C          2.7052380581        2.3988587211        0.2560242910
 C          1.5760692240        1.5952895651        0.1926887067
 N          1.4788566328        0.2238405726        0.0525865955
 C          2.5566489338       -0.6732136477       -0.0095017169
 C          3.5509309045       -0.6382725136        0.9633218275
 C          4.6130322178       -1.5208890360        0.8951073670
 C          4.6869226024       -2.4471013625       -0.1319653690
 C          3.6948953296       -2.4859828357       -1.0976557234
 C          2.6340767844       -1.6008508466       -1.0437896009
 C          0.1464679677       -0.1126201592       -0.0164028133
 C         -0.4533340134       -1.3618600557       -0.1109122548
 C         -1.8295482231       -1.4273773409       -0.1382002854
 H         -4.5903679376        0.6307385625       -0.0081578197
 H         -2.6218557909        1.8684453100        0.1291125565
 H         -0.8704834286        3.9654409981        0.3503804219
 H          1.1415315717        5.3936475432        0.5113722891
 H          3.3820985524        4.4102888216        0.4264422471
 H          3.6971022630        1.9758651259        0.2048493166
 H          3.4777340003        0.0709332619        1.7742670892
 H          5.3821475237       -1.4903671170        1.6525134774
 H          5.5156079246       -3.1371579403       -0.1795491193
 H          3.7507281130       -3.2040663662       -1.9021937605
 H          1.8695359005       -1.6134166105       -1.8062015604
 H          0.1388129441       -2.2633229675       -0.1509550422
 H         -2.2966238348       -2.3950813339       -0.2125177810
