  23
        -38.06676532
 C         -4.7707450635        0.0705716596       -0.1697262021
 C         -3.7438137101       -0.7526855287        0.0081950065
 C         -2.3328638287       -0.3945648620        0.0502680727
 C         -1.3822632876       -1.4015436592        0.2247012515
 C         -0.0377522410       -1.1055051487        0.2693988827
 C          0.4153745469        0.2086686395        0.1425008372
 C          1.8334037816        0.5329990703        0.2069981393
 C          2.8564235585       -0.2796911164       -0.0090265737
 F          2.8286660073       -1.5608221083       -0.3592005923
 F          4.1284189940        0.1121645983        0.0837556577
 C         -0.5288716293        1.2362019732       -0.0295065070
 C         -0.1059391711        2.6673823963       -0.1821989015
 C         -1.8738522297        0.9168646861       -0.0737725141
 H         -5.7830437443       -0.2951024366       -0.1858444401
 H         -4.6535645103        1.1317845192       -0.3068695070
 H         -3.9393174674       -1.8105154205        0.1371220592
 H         -1.7053268156       -2.4272972641        0.3283960252
 H          0.6703660426       -1.9044241279        0.4193699957
 H          2.1053431743        1.5484755305        0.4507003243
 H          0.3766549235        3.0273798968        0.7263914796
 H         -0.9692520424        3.2982311582       -0.3775028797
 H          0.5947817911        2.7794209819       -1.0080393003
 H         -2.5874167334        1.7153588380       -0.2093026796
