  30
        -49.12325242
 C          5.0111642000        0.4866386567       -0.2838544765
 O          3.6108802175        0.7153492847       -0.2544874495
 C          2.8550297371       -0.3472301247        0.0538189221
 O          3.3323425692       -1.4314133784        0.2925209959
 C          1.3921207730       -0.0821319598        0.0536275307
 C          0.5916895351       -1.2225430923        0.0951639975
 C         -0.7932802307       -1.1815267954        0.0906227017
 C         -1.5581155284       -2.4645555423        0.1428933492
 C         -1.3921197350        0.0851153601        0.0469870614
 C         -2.8549679276        0.3500242532        0.0305377374
 O         -3.3320271905        1.4471992526        0.2007040705
 O         -3.6113539943       -0.7296308065       -0.2096582439
 C         -5.0116218135       -0.5028991133       -0.2519332428
 C         -0.5916123171        1.2261597642        0.0286263060
 C          0.7933199133        1.1849955676        0.0285071870
 C          1.5585774146        2.4687776294        0.0139177633
 H          5.2566736970       -0.2739311212       -1.0280262611
 H          5.3609995951        0.1441038746        0.6922911048
 H          5.4688424474        1.4379140836       -0.5431405156
 H          1.0982175686       -2.1764135693        0.1316432994
 H         -0.8784294224       -3.3000044284        0.2907582348
 H         -2.1070846691       -2.6176324123       -0.7842838835
 H         -2.2837662833       -2.4502520662        0.9529028824
 H         -5.4694678335       -1.4678757994       -0.4539985550
 H         -5.2574405302        0.2121876790       -1.0398064398
 H         -5.3609887234       -0.1030181342        0.7023313542
 H         -1.0981993883        2.1805706475        0.0130775874
 H          0.8791254430        3.3110612057        0.1173685471
 H          2.1081175743        2.5728598413       -0.9196789278
 H          2.2837219860        2.4967234345        0.8240446292
