26
 energy: -32.770400845314 gnorm: 0.000057467744 xtb: 6.4.1 (23d549d)
C         3.74808283180000    1.02557774510000    0.31937311180000
C         2.87239292640000    0.28975686540000   -0.34911382570000
C         1.42418899980000    0.32522995630000   -0.11977453900000
C         0.80972032170000    1.56214404330000    0.06788179900000
C        -0.55310708150000    1.65133944950000    0.22961663640000
C        -1.35390797780000    0.51044637150000    0.19621805690000
C        -2.80334266550000    0.71733311470000    0.29541243190000
C        -3.71448642520000    0.18552143210000   -0.50595196480000
C        -0.74722863200000   -0.74322821690000    0.06444258530000
C        -1.55544997080000   -2.00532051870000    0.14282530490000
C         0.63978655640000   -0.83317490850000   -0.09849352720000
C         1.27124232360000   -2.19095561620000   -0.21165587990000
H         4.80242503130000    0.99239348750000    0.10243374910000
H         3.44606676990000    1.67710991590000    1.12269276990000
H         3.22026747350000   -0.36678521250000   -1.13697329770000
H         1.41341467680000    2.45742884440000    0.05885282640000
H        -1.01995284730000    2.61817682130000    0.35464577500000
H        -3.11025037700000    1.42680067750000    1.05547340620000
H        -3.44984331760000   -0.48154800620000   -1.30900639580000
H        -4.76172571420000    0.41648465960000   -0.40323129660000
H        -2.56505481510000   -1.80039635950000    0.48578726110000
H        -1.09384367760000   -2.70926528330000    0.83355524060000
H        -1.61255484510000   -2.48954397910000   -0.83228456530000
H         0.83302360640000   -2.75105522790000   -1.03702400300000
H         1.10346706360000   -2.76140099550000    0.70210013660000
H         2.34301688450000   -2.12330754390000   -0.36382471730000
