  24
        -33.66467875
 C          1.5867858876        3.2867352482        0.0665557483
 C          0.4008684197        2.7000269571       -0.0390575648
 C          0.1284493354        1.2675481339        0.0123868402
 C         -1.1945699892        0.8352740204       -0.0144650708
 C         -1.5225071750       -0.5172372992        0.0407107782
 C         -2.8986643222       -1.0015605003        0.0168890733
 C         -3.9935435211       -0.2777320427       -0.1800492048
 C         -0.4862388334       -1.4472731966        0.1191323170
 C          0.8389922360       -1.0395245616        0.1400411384
 C          1.9484807329       -2.0606123865        0.2272833964
 O          3.1639318093       -1.6336479625       -0.3394667514
 C          1.1411597223        0.3110771812        0.0890093897
 H          1.6865259458        4.3576300236        0.0182708614
 H          2.5007739085        2.7362015410        0.2083982234
 H         -0.4789889113        3.3187582386       -0.1704175050
 H         -1.9807058413        1.5730981944       -0.0688258568
 H         -2.9988397634       -2.0695302835        0.1702645560
 H         -3.9692508976        0.7850232396       -0.3494784890
 H         -4.9702402380       -0.7305159536       -0.1821517284
 H         -0.7186861473       -2.5026504140        0.1604368485
 H          1.6180729306       -3.0044239167       -0.2328789218
 H          2.1768655810       -2.2624252164        1.2796749226
 H          3.0053956356       -1.3887142031       -1.2580894806
 H          2.1774934720        0.6104127496        0.1120268958
