  35
        -60.33339903
 C         -5.0516007948        0.8590316234       -1.2610352788
 C         -4.8082306336        0.0338131883        0.0010860078
 C         -5.6827626208       -1.2199678910        0.0024517880
 O         -3.4531605378       -0.4901074103        0.0023223697
 C         -2.4070479351        0.3314061131        0.0011420012
 N         -1.2286862667       -0.4014828865        0.0000151016
 C         -1.1253730445       -1.7856189436       -0.0021025382
 C          0.1725194160       -2.1598507259       -0.0043739542
 C          0.0565118412        0.1202591151       -0.0008308335
 C          0.9612929346       -0.9641974243       -0.0034275417
 C          2.3305240596       -0.7375338216       -0.0046146910
 C          2.7922602882        0.5746921198       -0.0031761896
 C          4.2057409965        0.9185480728       -0.0043103070
 C          5.2539597807        0.1088167957        0.0012697899
 F          5.2664898757       -1.2200364434        0.0091074590
 F          6.5131635908        0.5483952582        0.0002244207
 C          1.8696188977        1.6366529558       -0.0008863617
 C          0.5065867834        1.4314187533        0.0004663281
 O         -2.4302545895        1.5342319001        0.0009285243
 C         -5.0527428719        0.8624870276        1.2606835876
 H         -4.8212388787        0.2681179535       -2.1451464006
 H         -4.4269165583        1.7479644416       -1.2595003432
 H         -6.0939800838        1.1616919150       -1.3020330627
 H         -5.4765081178       -1.8204912288       -0.8796629144
 H         -6.7316225461       -0.9398713380        0.0026519411
 H         -5.4757908859       -1.8189778404        0.8854317182
 H         -2.0151458728       -2.3829656480       -0.0018196041
 H          0.5497038195       -3.1629858655       -0.0063873869
 H          3.0089728868       -1.5741475477       -0.0070235154
 H          4.4454293831        1.9721739846       -0.0095741527
 H          2.2455993862        2.6487958095       -0.0000814903
 H         -0.1860892432        2.2562335005        0.0023174551
 H         -6.0946364260        1.1671912940        1.2982819721
 H         -4.4264436540        1.7502869264        1.2584108553
 H         -4.8257061555        0.2733670617        2.1468493798
  35
        -60.33307055
 C         -4.8405260551        1.1314523911       -1.2647230187
 C         -4.7324007336        0.2714063238       -0.0070334914
 C         -5.7833002668       -0.8386502762       -0.0212950371
 O         -3.4698422703       -0.4477865858       -0.0002167512
 C         -2.3142236873        0.2108689191        0.0099165214
 N         -1.2560924807       -0.6876581635        0.0104266147
 C         -1.3576732927       -2.0713468888        0.0076285545
 C         -0.1288806969       -2.6328991238        0.0040397385
 C          0.0919030863       -0.3601123346        0.0084939774
 C          0.8267303483       -1.5661686128        0.0038755188
 C          2.2133284801       -1.5325519869       -0.0007390076
 C          2.8641113728       -0.3019854026       -0.0006039322
 C          4.3185780174       -0.3096947369       -0.0068912754
 C          5.1579029384        0.7151206078       -0.0072705851
 F          4.8765319383        2.0130575348       -0.0014877852
 F          6.4835837946        0.5653681478       -0.0139831277
 C          2.1091116922        0.8838082338        0.0048597495
 C          0.7299584413        0.8705997497        0.0094071466
 O         -2.1602643453        1.4036538735        0.0171793797
 C         -4.8613920770        1.1192944927        1.2568893713
 H         -4.6943557293        0.5183950536       -2.1517026357
 H         -4.0904589377        1.9173720346       -1.2527804191
 H         -5.8257866321        1.5864186843       -1.3100450077
 H         -5.6606589355       -1.4581632114       -0.9058838509
 H         -6.7788334838       -0.4057263879       -0.0277090170
 H         -5.6757384956       -1.4666953158        0.8592155268
 H         -2.3254976833       -2.5316003649        0.0088911292
 H          0.0950789808       -3.6810708627        0.0016751236
 H          2.7788175707       -2.4524406289       -0.0048104425
 H          4.7915374964       -1.2815392632       -0.0123491606
 H          2.6128898402        1.8355840363        0.0053216814
 H          0.1640437307        1.7870015755        0.0133943539
 H         -5.8468331129        1.5749754813        1.2895016494
 H         -4.1104122723        1.9043944219        1.2654991622
 H         -4.7312828761        0.4975527375        2.1403009914
  35
        -60.33291403
 C         -4.6380837097        0.9149772738        1.2542683898
 C         -3.7626720665        1.2814380863        0.0576818674
 C         -3.2348655889        2.7096516872        0.1944268205
 O         -2.5586256446        0.4657656959        0.0469037597
 C         -2.6358880151       -0.8536353012       -0.0525013394
 N         -1.3714624267       -1.4341151009       -0.0617477691
 C         -1.2084793716       -2.8109471233       -0.1329340885
 C          0.1026164064       -3.1316684994       -0.1403748142
 C         -0.1116692576       -0.8569670660       -0.0236752252
 C          0.8374887584       -1.9046580981       -0.0734755851
 C          2.1945915758       -1.6193651847       -0.0566050916
 C          2.6123467992       -0.2935151408        0.0075624767
 C          4.0434131996       -0.0349067071        0.0165245381
 C          4.6797232009        1.1264351250        0.0481520277
 F          4.1619566112        2.3497916894        0.0815536103
 F          6.0097079836        1.2253672899        0.0496798315
 C          1.6523044532        0.7311374834        0.0589868185
 C          0.2987410151        0.4663142659        0.0447976596
 O         -3.6342427744       -1.5215658250       -0.1277669258
 C         -4.5197939304        1.1096632689       -1.2575637889
 H         -4.0643903161        0.9912814046        2.1756263812
 H         -5.0113960341       -0.1004751287        1.1550623132
 H         -5.4823720907        1.5962594089        1.3080509546
 H         -2.6644954925        2.8113640354        1.1142235106
 H         -4.0644700435        3.4097062686        0.2147288887
 H         -2.5886249009        2.9528254997       -0.6451554592
 H         -2.0810801920       -3.4330986292       -0.1716453239
 H          0.5214938953       -4.1167677595       -0.1880635154
 H          2.9167122739       -2.4211170041       -0.0957378447
 H          4.6863791652       -0.9031875989       -0.0098028178
 H          1.9723148939        1.7581494652        0.1115980250
 H         -0.4140839594        1.2717999339        0.0857703619
 H         -5.3631552295        1.7936216534       -1.2839195794
 H         -4.8891424830        0.0922056996       -1.3522629455
 H         -3.8638075715        1.3263700294       -2.0982296369
  35
        -60.33288068
 C         -4.8561046926        0.7089464660        1.2630616752
 C         -4.0953838799        1.1054135436       -0.0005596632
 C         -3.8028887626        2.6060188210       -0.0046865231
 O         -2.7758573316        0.4943544029       -0.0016876176
 C         -2.6420907414       -0.8251209853        0.0006725963
 N         -1.3021369585       -1.1969334916        0.0005425396
 C         -0.9220014719       -2.5328075020        0.0008217453
 C          0.4231778445       -2.6407988842        0.0008771740
 C         -0.1498983401       -0.4263679281        0.0004591792
 C          0.9541430214       -1.3108359254        0.0005872119
 C          2.2533406446       -0.8231101393        0.0005732348
 C          2.4544062043        0.5529352718        0.0006365866
 C          3.7739065125        1.1648285917        0.0004067378
 C          4.9590828821        0.5731162224       -0.0011923824
 F          5.2281676175       -0.7276434923       -0.0026735504
 F          6.1087757216        1.2488656354       -0.0014332178
 C          1.3423329506        1.4133462971        0.0008557567
 C          0.0450873980        0.9470124494        0.0006936180
 O         -3.5226399466       -1.6455388356        0.0026952853
 C         -4.8615382483        0.7032145162       -1.2590642126
 H         -4.2703457882        0.9560920894        2.1461051863
 H         -5.0603843795       -0.3581425856        1.2635675628
 H         -5.7986063091        1.2473252686        1.3038530258
 H         -3.2277142627        2.8778931783        0.8767975399
 H         -4.7342666018        3.1639283809       -0.0036265432
 H         -3.2321083995        2.8738556271       -0.8902528597
 H         -1.6847914846       -3.2865649011        0.0009209042
 H          0.9946536131       -3.5470653334        0.0010292101
 H          3.0797641383       -1.5138851142        0.0006853330
 H          3.8049763625        2.2449407679        0.0014038293
 H          1.5131357035        2.4796735777        0.0010790694
 H         -0.7850638975        1.6322889314        0.0007435605
 H         -5.8040010515        1.2417823618       -1.2982648947
 H         -5.0662154606       -0.3637782354       -1.2537614064
 H         -4.2795355891        0.9460585123       -2.1457727480
