  26
        -32.77190378
 C          3.6487933556        1.2170588963        0.2928247680
 C          2.8501449207        0.3339695455       -0.2893049638
 C          1.3952883789        0.2960315801       -0.1182981357
 C          0.6852759281        1.4931483081       -0.0647271975
 C         -0.6852373330        1.4931662330        0.0638625107
 C         -1.3952221080        0.2960590403        0.1180242196
 C         -2.8499956740        0.3340035776        0.2897267526
 C         -3.6490838354        1.2169073094       -0.2920415188
 C         -0.6964695386       -0.9155791643        0.0421235996
 C         -1.4469955339       -2.2181827785        0.0240679292
 C          0.6965223443       -0.9155913310       -0.0422710876
 C          1.4470065211       -2.2181945832       -0.0241067606
 H          4.7115678079        1.2233915915        0.1186407784
 H          3.2738737961        1.9569224937        0.9805616120
 H          3.2717444202       -0.4079623802       -0.9557113773
 H          1.2209504001        2.4280105797       -0.1366666806
 H         -1.2209204603        2.4280474037        0.1354098739
 H         -3.2711345675       -0.4077565361        0.9565896197
 H         -3.2747010681        1.9566445029       -0.9801673639
 H         -4.7117457258        1.2231798953       -0.1171395709
 H         -2.4734759873       -2.0681216752       -0.2978383782
 H         -1.4589350368       -2.6704516753        1.0171196675
 H         -0.9799339172       -2.9212871534       -0.6614789894
 H          0.9794439485       -2.9215472064        0.6607925894
 H          2.4732116485       -2.0682532045        0.2986362553
 H          1.4597279114       -2.6700550160       -1.0173193919
  26
        -32.77136226
 C          3.6093286459        1.2314789231       -0.4378765980
 C          2.8653900249        0.3379703036        0.1975523905
 C          1.4011524142        0.2903115570        0.1319157869
 C          0.6878991077        1.4859387823        0.1879788125
 C         -0.6881830904        1.4855768501        0.1907453702
 C         -1.4020600443        0.2898587844        0.1405888926
 C         -2.8660279882        0.3420648548        0.2104003478
 C         -3.6085259012        1.2304922328       -0.4335205395
 C         -0.6997154635       -0.9177202923        0.0518383761
 C         -1.4266882595       -2.2253625255       -0.0752489023
 C          0.6982448259       -0.9168851267        0.0441456251
 C          1.4284287907       -2.2219981774       -0.0920916398
 H          4.6819191844        1.2497139778       -0.3426382625
 H          3.1755249751        1.9687092648       -1.0930935694
 H          3.3425558816       -0.3989134866        0.8315018777
 H          1.2277178910        2.4182101475        0.2630503140
 H         -1.2280738794        2.4177613771        0.2666726721
 H         -3.3447252920       -0.3849111553        0.8545955971
 H         -3.1737453233        1.9582766139       -1.0985490942
 H         -4.6807513921        1.2538771060       -0.3354766649
 H         -2.5023160117       -2.0862409838       -0.0906924113
 H         -1.1694446397       -2.8891405248        0.7501239882
 H         -1.1440141039       -2.7254745321       -1.0014896605
 H          1.0630257054       -2.7726628584       -0.9578511542
 H          1.2664580546       -2.8454779446        0.7877398815
 H          2.4948892708       -2.0702087781       -0.2213483920
  26
        -32.77080928
 C          3.6937778666        1.1255570248       -0.4187337518
 C          2.8984605513        0.2237334748        0.1385516570
 C          1.4347186713        0.2988924681        0.1334392339
 C          0.8184275858        1.5342383410        0.3214231071
 C         -0.5529489355        1.6330007834        0.3605521200
 C         -1.3582448015        0.5040842017        0.2136500312
 C         -2.8088751703        0.7212549371        0.2270056688
 C         -3.6765487724        0.2151957434       -0.6371602969
 C         -0.7535454931       -0.7486185732        0.0580413508
 C         -1.5767490431       -2.0040490168        0.0173446967
 C          0.6395886311       -0.8439639982       -0.0091993147
 C          1.2811952411       -2.1799321824       -0.2608234981
 H          4.7666200001        1.0448617638       -0.3697069134
 H          3.3032944102        1.9709568880       -0.9607760757
 H          3.3322096801       -0.6229742551        0.6553624964
 H          1.4285413749        2.4144430290        0.4590901509
 H         -1.0205687400        2.5976997346        0.4987909489
 H         -3.1554690789        1.4180377617        0.9818287151
 H         -3.3731523952       -0.4368536270       -1.4384889251
 H         -4.7255333781        0.4561112633       -0.5901878432
 H         -2.5817782684       -1.8168492742        0.3844786088
 H         -1.1206950742       -2.7746321759        0.6361460071
 H         -1.6509451471       -2.3911588259       -0.9994011976
 H          0.6955018523       -2.7611809827       -0.9689065035
 H          1.3544959902       -2.7520882534        0.6655266670
 H          2.2796666957       -2.0592332201       -0.6708680037
  26
        -32.77040085
 C          3.7480828318        1.0255777451        0.3193731118
 C          2.8723929264        0.2897568654       -0.3491138257
 C          1.4241889998        0.3252299563       -0.1197745390
 C          0.8097203217        1.5621440433        0.0678817990
 C         -0.5531070815        1.6513394495        0.2296166364
 C         -1.3539079778        0.5104463715        0.1962180569
 C         -2.8033426655        0.7173331147        0.2954124319
 C         -3.7144864252        0.1855214321       -0.5059519648
 C         -0.7472286320       -0.7432282169        0.0644425853
 C         -1.5554499708       -2.0053205187        0.1428253049
 C          0.6397865564       -0.8331749085       -0.0984935272
 C          1.2712423236       -2.1909556162       -0.2116558799
 H          4.8024250313        0.9923934875        0.1024337491
 H          3.4460667699        1.6771099159        1.1226927699
 H          3.2202674735       -0.3667852125       -1.1369732977
 H          1.4134146768        2.4574288444        0.0588528264
 H         -1.0199528473        2.6181768213        0.3546457750
 H         -3.1102503770        1.4268006775        1.0554734062
 H         -3.4498433176       -0.4815480062       -1.3090063958
 H         -4.7617257142        0.4164846596       -0.4032312966
 H         -2.5650548151       -1.8003963595        0.4857872611
 H         -1.0938436776       -2.7092652833        0.8335552406
 H         -1.6125548451       -2.4895439791       -0.8322845653
 H          0.8330236064       -2.7510552279       -1.0370240030
 H          1.1034670636       -2.7614009955        0.7021001366
 H          2.3430168845       -2.1233075439       -0.3638247173
