  40
        -69.08608029
 C          2.7699058163        5.2244635084       -0.2338073458
 O          1.8451069610        4.1655587464       -0.2393446176
 C          2.3076088757        2.8867586321       -0.1251127609
 C          3.6574555368        2.5438004481        0.0012250310
 C          4.0438671767        1.2206082269        0.0932586635
 C          1.3225842957        1.9021043890       -0.1449944516
 C          1.7136047000        0.5816101299       -0.0268209545
 C          3.0787221276        0.2265609995        0.0763990819
 C          3.1277266272       -1.2078479809        0.1285275161
 C          4.1636805167       -2.1236043601        0.2503342000
 C          3.8557196086       -3.4691716678        0.2979982968
 C          2.5340269213       -3.9026430445        0.2434010029
 C          1.4857411887       -3.0089307971        0.1220396943
 C          1.7906807468       -1.6586313223        0.0453700085
 N          0.9446652859       -0.5663926924       -0.0477847764
 C         -0.4472277941       -0.6181296688       -0.1495016325
 C         -1.0559535714       -1.4670908165       -1.0724218556
 C         -2.4299678567       -1.5186223638       -1.1637779173
 C         -3.2402877773       -0.7245992509       -0.3473924608
 C         -4.6805987441       -0.8308245462       -0.5018815138
 C         -5.6322500429       -0.1837206928        0.1554938671
 F         -5.4943389733        0.7206930105        1.1179959060
 F         -6.9309970844       -0.3685629303       -0.0780327385
 C         -2.6211500501        0.1266803387        0.5711954127
 C         -1.2466810314        0.1764264630        0.6704412939
 H          2.1770584475        6.1320480889       -0.3378591165
 H          3.4701881182        5.1534707095       -1.0725497632
 H          3.3304807213        5.2663231947        0.7058697010
 H          4.4152806645        3.3104132297        0.0184584660
 H          5.0897809882        0.9664713429        0.1736589982
 H          0.2927170347        2.1965920130       -0.2639314494
 H          5.1870755700       -1.7856751786        0.3118159273
 H          4.6471973374       -4.1979727270        0.3898888328
 H          2.3212144629       -4.9598766681        0.3013239050
 H          0.4637489196       -3.3560796151        0.1024132367
 H         -0.4439816129       -2.0689899370       -1.7269229232
 H         -2.8891602978       -2.1777020683       -1.8859953291
 H         -5.0345992233       -1.5266813816       -1.2490456278
 H         -3.2128067872        0.7493712832        1.2216018388
 H         -0.7812541055        0.8212137509        1.3999460327
