  26
        -41.23396346
 C         -4.3044841813       -0.5677772195        0.9772162442
 C         -3.6683293240        0.1754709065        0.0816743604
 C         -2.2193774006        0.1920695023       -0.1103607444
 C         -1.4674973055       -0.9578037407        0.1075927171
 C         -0.0909110041       -1.0008358821       -0.0544853797
 C          0.6298690833       -2.2965646363        0.1571001422
 C          0.5620743915        0.1699869499       -0.4519662741
 C          2.0096347563        0.2700044374       -0.6522516689
 C          2.9540332445       -0.1584173158        0.1659369613
 F          2.7954226422       -0.7588377328        1.3396201011
 F          4.2590866724       -0.0117453913       -0.0711843710
 C         -0.1920624401        1.3145446156       -0.7114133015
 C         -1.5631437707        1.3544006289       -0.5436508230
 C         -2.3149576184        2.6246887067       -0.8063276401
 H         -5.3767063490       -0.5431742569        1.0723016187
 H         -3.7813770644       -1.2136644562        1.6623789327
 H         -4.2379546941        0.8359747030       -0.5584333174
 H         -1.9807864824       -1.8640390201        0.3938810879
 H         -0.0393854642       -3.1331785422       -0.0303115845
 H          0.9840846063       -2.3733931924        1.1845590353
 H          1.4901931032       -2.3815458265       -0.5035573517
 H          2.3492680325        0.8018703253       -1.5296540048
 H          0.3239948675        2.2071849295       -1.0370962652
 H         -1.6273921805        3.4334232812       -1.0408742791
 H         -2.9035019745        2.9103568337        0.0640581228
 H         -2.9961048869        2.5011809072       -1.6484537073
