  26
        -32.77233918
 C          3.7561641781       -0.0479607943        0.6277666089
 C          2.7979763130       -0.6281793990       -0.0812288112
 C          1.3843688678       -0.2493364326       -0.1104147151
 C          0.4494912093       -1.2825745290       -0.1477483183
 C         -0.9190762493       -1.0714558708       -0.1332326107
 C         -1.8339471570       -2.2582747813       -0.1921548862
 C         -1.3843535247        0.2493499513       -0.1103283631
 C         -2.7979576246        0.6282013496       -0.0811312902
 C         -3.7562317312        0.0478723330        0.6276643314
 C         -0.4494758296        1.2825903386       -0.1475947240
 C          0.9190949008        1.0714690010       -0.1331685815
 C          1.8339571391        2.2583003534       -0.1919938760
 H          4.7679910713       -0.4176743026        0.6102940903
 H          3.5700674204        0.7923305637        1.2730734739
 H          3.0376714151       -1.5087869647       -0.6668388224
 H          0.8144567678       -2.3010348199       -0.1722759321
 H         -1.3522317380       -3.0755426309       -0.7257053885
 H         -2.7666020463       -2.0094648808       -0.6927704516
 H         -2.0683248286       -2.6117285914        0.8122092412
 H         -3.0375836738        1.5089594157       -0.6665456130
 H         -3.5702524857       -0.7925808283        1.2727906587
 H         -4.7680439979        0.4176167622        0.6101462781
 H         -0.8144336938        2.3010571647       -0.1719765772
 H          1.3523625041        3.0754765039       -0.7257944483
 H          2.7667498218        2.0094496256       -0.6923252077
 H          2.0680484358        2.6119048706        0.8123850839
