  26
        -41.23396346
 C         -4.3214757270       -0.7613599868        0.7550610656
 C         -3.6702280732        0.1607490766        0.0587828582
 C         -2.2183283790        0.2159650841       -0.1002370768
 C         -1.4677549697       -0.9550329335       -0.1237103244
 C         -0.0886295476       -0.9644575390       -0.2684938461
 C          0.6306546342       -2.2766616825       -0.3308458069
 C          0.5687238291        0.2634703991       -0.3925705361
 C          2.0189163027        0.4022880273       -0.5440290763
 C          2.9523975872       -0.1963312641        0.1737772379
 F          2.7787765207       -1.0388705754        1.1852988908
 F          4.2603554027       -0.0029215237       -0.0073269957
 C         -0.1833450575        1.4382884930       -0.4105465731
 C         -1.5570820119        1.4433898001       -0.2608612622
 C         -2.3063936828        2.7420164746       -0.2556840742
 H         -5.3952276489       -0.7550448487        0.8344303734
 H         -3.8103622143       -1.5453239299        1.2883226072
 H         -4.2294629221        0.9487657741       -0.4277402668
 H         -1.9838108355       -1.9009473699       -0.0489568635
 H         -0.0346562661       -3.0518809607       -0.7041301885
 H          0.9698509242       -2.5740227543        0.6608895311
 H          1.5007064531       -2.2186854621       -0.9816237022
 H          2.3705363554        1.1128893833       -1.2785555703
 H          0.3363032507        2.3793602121       -0.5269468874
 H         -1.6161659583        3.5808076196       -0.2985021746
 H         -2.9100735783        2.8344783616        0.6457371940
 H         -2.9728481870        2.8047047458       -1.1160933622
