  24
        -32.50254874
 C          3.1585195219       -0.7964325653       -0.2017570762
 C          1.7140213243       -0.4256659276       -0.0747357929
 C          0.7136853975       -1.3888677429       -0.1098243734
 C         -0.6256571274       -1.0553032205        0.0090543091
 C         -1.6716752459       -2.1309602762        0.0539784295
 C         -0.9180176512        0.3133485521        0.1338124322
 N         -2.1977848210        0.8230850650        0.3006635986
 N         -3.2950809398        0.4125972873       -0.4897762577
 N          0.0354781296        1.2391835956        0.1852544337
 C          1.3114506489        0.8992217358        0.1029009541
 C          2.3013955793        2.0183367568        0.1947530041
 H          3.2683439423       -1.8699652728       -0.3364004734
 H          3.7105819413       -0.4997192095        0.6898676877
 H          3.6112511622       -0.2909137990       -1.0545431581
 H          0.9860170614       -2.4311806749       -0.2157213964
 H         -1.1967714602       -3.1013902430        0.1826597202
 H         -2.2556907140       -2.1655388461       -0.8667232849
 H         -2.3479909101       -1.9665617484        0.8919337168
 H         -2.1632740148        1.8365222852        0.3607255105
 H         -3.7141376553       -0.4229797434       -0.0920415274
 H         -3.0132241528        0.2109526997       -1.4489900944
 H          1.7716322697        2.9557237516        0.3339963691
 H          2.8993175951        2.0749333496       -0.7138081753
 H          2.9776298423        1.8596173319        1.0334744816
