  24
        -35.66869347
 C         -4.0319457603        0.1051535266        0.5656438796
 C         -2.5967358054       -0.0306565439        0.1567233313
 C         -2.0562712394       -1.2647610555       -0.1716977378
 C         -0.7245420282       -1.3695149945       -0.5270131124
 C          0.0978138658       -0.2534331615       -0.5656484613
 C          1.5458903847       -0.4139559133       -0.9398611978
 C          2.4629385298       -0.3772585098        0.2752450047
 O          2.1169874342       -0.1693283867        1.3983333567
 O          3.7632103737       -0.6027601375       -0.0126691909
 C         -0.4302518747        0.9959037003       -0.2327687722
 C          0.4216722385        2.2290330620       -0.2492018598
 C         -1.7687331818        1.0832096418        0.1187907464
 H         -4.6076933643       -0.7655447489        0.2615577176
 H         -4.4770855198        0.9948956163        0.1246728670
 H         -4.1018442334        0.1986933871        1.6496350776
 H         -2.6765681767       -2.1489888035       -0.1483022103
 H         -0.3176683530       -2.3392192245       -0.7787703371
 H          1.8613466633        0.3838426748       -1.6198975405
 H          1.6940763517       -1.3730059758       -1.4458428057
 H          3.9174079446       -0.7606931745       -0.9530614905
 H          0.8258992120        2.4124133923       -1.2454983535
 H          1.2542102147        2.1204744861        0.4435208188
 H         -0.1603604290        3.0979350435        0.0462612079
 H         -2.1806423686        2.0491995005        0.3766393930
