  43
        -65.74935747
 C          4.2560142772        3.9481791509        0.0887460932
 O          2.8757999458        4.2086011889        0.1027145953
 C          2.0170753096        3.1425926686        0.0776286360
 C          2.4068193890        1.8148524613        0.0416672398
 C          1.4174370575        0.8371595091        0.0129916415
 C          1.4698742120       -0.5968339587       -0.0043820542
 C          2.5119597995       -1.5087887455       -0.0280443120
 C          2.2187061155       -2.8668161311       -0.0650968897
 O          3.3039647245       -3.7033477773       -0.0784917884
 C          3.0857563545       -5.0898177393       -0.1213118049
 C          0.8900465585       -3.2999193303       -0.0961836179
 C         -0.1599184714       -2.3990061712       -0.0734764265
 C          0.1278951560       -1.0462239001       -0.0092079026
 N         -0.7207794184        0.0435654004       -0.0008773659
 C         -2.1206597382       -0.0037133338       -0.0037430804
 C         -2.7996806840       -0.8150148962        0.9013191896
 C         -4.1795573742       -0.8619934582        0.8891836456
 C         -4.9163414743       -0.0992517138       -0.0102818949
 C         -6.4138802932       -0.1431144169        0.0057835872
 C         -4.2304550964        0.7116578551       -0.9051331755
 C         -2.8492260591        0.7587932511       -0.9111495830
 C          0.0513825041        1.1894768675        0.0112890473
 C         -0.3330040973        2.5228527683        0.0741255131
 C          0.6549621419        3.4815073558        0.1020656916
 H          4.7413510799        4.9228972075        0.1089575658
 H          4.5564254671        3.4139675129       -0.8190782986
 H          4.5665678410        3.3721660496        0.9671214207
 H          3.4430922257        1.5186736528        0.0407972969
 H          3.5425142854       -1.1929594562       -0.0227380408
 H          4.0759218404       -5.5436201612       -0.1188522601
 H          2.5557650961       -5.3888783772       -1.0321859348
 H          2.5280251229       -5.4394951989        0.7542945961
 H          0.6604646715       -4.3525216687       -0.1441020396
 H         -1.1781477591       -2.7545492642       -0.1174753877
 H         -2.2397911562       -1.3946546223        1.6198856732
 H         -4.6966069029       -1.4953648453        1.5959182168
 H         -6.7683741572       -1.1667378423        0.1099999085
 H         -6.8257466553        0.2810686850       -0.9064553995
 H         -6.7958922091        0.4294414236        0.8514951379
 H         -4.7839618880        1.3088277446       -1.6157156333
 H         -2.3276548297        1.3747291624       -1.6282867657
 H         -1.3735030583        2.8063293527        0.1126328585
 H          0.4028825707        4.5290382230        0.1480627298
