  17
        -24.37445701
 C          2.1976479811       -1.8295894440        0.3516768264
 C          1.9570663453       -0.7565967491       -0.3881424277
 C          0.8207049116        0.1437842422       -0.2367230163
 C          1.0091222227        1.5474008738       -0.3676889010
 C         -0.1018300236        2.2725008691       -0.0966661446
 S         -1.4331933045        1.2711094493        0.3150510485
 C         -0.4754430448       -0.1723312093        0.1115574472
 C         -1.1760788641       -1.4296425816        0.2391665555
 C         -0.8645819987       -2.5666811174       -0.3733687722
 H          3.0864419453       -2.4210620247        0.2130168031
 H          1.5165193041       -2.1542077908        1.1198839547
 H          2.6828439382       -0.4379633514       -1.1272413511
 H          1.9543448101        1.9860243586       -0.6363426889
 H         -0.2265752272        3.3369917108       -0.1148226891
 H         -2.0720123200       -1.3782998605        0.8465356088
 H         -0.0059591788       -2.6527132854       -1.0161492460
 H         -1.4669513147       -3.4493271941       -0.2471914839
