  34
        -42.53536804
 C          2.1587574716       -3.1451871211        0.3951915209
 C          2.2537174612       -1.9773390963       -0.2258143509
 C          1.2723191951       -0.8959061340       -0.1390376278
 C         -0.0805964976       -1.2119206789       -0.0479635242
 C         -1.0686617040       -0.2409707611       -0.0247599994
 C         -2.5534752649       -0.5639042587        0.0453851912
 C         -2.8235538652       -2.0668634668        0.1555379753
 C         -3.1617351552        0.1195962161        1.2780106424
 C         -3.2381966687       -0.0447593778       -1.2266698313
 C         -0.6544351110        1.0832473649       -0.0878052255
 C          0.6851013273        1.4501738134       -0.1327442080
 C          0.9910077340        2.8817617502       -0.1466862788
 C          1.9814746966        3.4847166254        0.4997136686
 C          1.6752164285        0.4511378651       -0.1764910228
 N          3.0127197306        0.7896625206       -0.2019165746
 H          2.9009590874       -3.9153052910        0.2704218098
 H          1.3457153491       -3.3710633728        1.0640678971
 H          3.1122568343       -1.8009837266       -0.8660380758
 H         -0.3399630483       -2.2571110735       -0.0329538352
 H         -2.3608724375       -2.4809557994        1.0484178953
 H         -2.4516395453       -2.5974997946       -0.7178364215
 H         -3.8962290896       -2.2391852103        0.2210576019
 H         -2.6609766264       -0.2218379191        2.1815794697
 H         -4.2201822259       -0.1207258151        1.3570906835
 H         -3.0625681813        1.1999704485        1.2224915342
 H         -2.8033812479       -0.5159396914       -2.1058913158
 H         -3.1225257282        1.0311579908       -1.3251084929
 H         -4.3018892518       -0.2731987925       -1.2023150749
 H         -1.3856295914        1.8785820629       -0.0817243292
 H          0.2879451741        3.4856668701       -0.7103398948
 H          2.6657819611        2.9482573893        1.1348531538
 H          2.1123797628        4.5533352781        0.4517078527
 H          3.2133247955        1.7105374705       -0.5620171415
 H          3.6436043745        0.0708108115       -0.5180584231
