  17
        -22.49012896
 C         -1.8457224752        1.5032478671        0.0002122013
 C         -0.5831848167        0.6936192450       -0.0000418280
 C         -0.5295550629       -0.7008321649       -0.0001310357
 C         -1.7206468368       -1.6127342139       -0.0001253932
 C          0.7358632263       -1.2906569068        0.0000905699
 N          1.8778450176       -0.6348162062        0.0001799195
 C          1.8208467217        0.6881788022       -0.0000672569
 C          0.6291071790        1.3846021672       -0.0001842561
 H         -2.7412420216        0.8916193262        0.0036355011
 H         -1.8702115605        2.1431528019       -0.8812276295
 H         -1.8668361604        2.1477907277        0.8783251950
 H         -2.6631687216       -1.0759055546       -0.0067977323
 H         -1.6959521085       -2.2500602632        0.8831163926
 H         -1.6888534987       -2.2592601840       -0.8763729471
 H          0.8228185796       -2.3706522268        0.0002833059
 H          2.7737386442        1.2007166859       -0.0002097123
 H          0.6288031653        2.4648131261       -0.0003092526
