  22
        -34.10082890
 C          3.5032088288        0.6679672505       -0.3713950452
 C          2.7186990967       -0.2087664682        0.2441768994
 C          1.2625809854       -0.2978019199        0.1330573503
 C          0.6975121213       -1.5704820618        0.1147544533
 C         -0.6659808358       -1.7154883109       -0.0217881555
 F         -1.1984718631       -2.9618025448       -0.0530515203
 C         -1.5018772328       -0.6242715665       -0.1386577772
 C         -0.9681261068        0.6580173393       -0.0946784207
 C         -1.8450614551        1.8195548075       -0.2467625335
 C         -3.0969268045        1.8870327247        0.1864350918
 C          0.4231671381        0.8313584491        0.0635007612
 N          0.9480807197        2.1050887106        0.1503728984
 H          4.5732140663        0.6408120459       -0.2501150343
 H          3.1185411575        1.4083365127       -1.0522459495
 H          3.1696316405       -0.9802787068        0.8573886852
 H          1.3252563891       -2.4450357408        0.1864546994
 H         -2.5601275819       -0.7722108064       -0.2796658042
 H         -1.4170984268        2.6656956159       -0.7704591032
 H         -3.5585882825        1.0792431511        0.7287908211
 H         -3.7046100202        2.7607660283        0.0243432469
 H          0.3138846407        2.8146769348        0.4801673288
 H          1.8725659786        2.1570972340        0.5509829110
  22
        -34.10082012
 C          3.6430040413       -0.5236638965        0.4029673493
 C          2.7002755374        0.2124657574       -0.1703194941
 C          1.2648111524       -0.0624094329       -0.0979601660
 C          0.8115546034       -1.3765971290       -0.0588745550
 C         -0.5433710024       -1.6314080455       -0.0316204527
 F         -0.9718004106       -2.9175701005        0.0003962378
 C         -1.4748380132       -0.6150630113       -0.0622882137
 C         -1.0493914914        0.7083685438       -0.1014321137
 C         -2.0331815149        1.7890352851       -0.1774317629
 C         -3.2300277935        1.7660250093        0.3937920895
 C          0.3307550454        0.9926801573       -0.0945534677
 N          0.7670933011        2.3029377498       -0.0999587297
 H          4.6879051499       -0.2878029313        0.2956348345
 H          3.4076997210       -1.3810091019        1.0105394974
 H          2.9855875478        1.0776146470       -0.7565609357
 H          1.5108511618       -2.1966029051       -0.0759093785
 H         -2.5261324919       -0.8519559159       -0.0818417981
 H         -1.7413511393        2.6517611588       -0.7641603731
 H         -3.5565890653        0.9399784323        1.0027140614
 H         -3.9242787505        2.5815439003        0.2846802028
 H          0.1058704317        2.9911942138        0.2183424497
 H          1.7079480101        2.4577698201        0.2210494135
  22
        -34.10028240
 C          3.6593099909       -0.5338442996       -0.2652661753
 C          2.6935754325        0.1980988682        0.2729978492
 C          1.2623357594       -0.0595379107        0.1123271496
 C          0.8098457488       -1.3738892628        0.0407131285
 C         -0.5401155463       -1.6281905956       -0.0689178889
 F         -0.9670556694       -2.9139942787       -0.1265307764
 C         -1.4691120473       -0.6099024003       -0.1230423310
 C         -1.0441643324        0.7122470201       -0.0699440334
 C         -2.0213022826        1.7960174257       -0.1839850146
 C         -3.2586270801        1.7535007138        0.2915595459
 C          0.3312508461        0.9967087146        0.0589777169
 N          0.7580527902        2.3077347177        0.0605436265
 H          4.6988444485       -0.3142210183       -0.0923973679
 H          3.4484137426       -1.3687938426       -0.9113062716
 H          2.9659374246        1.0431725641        0.8961269431
 H          1.5065987135       -2.1942538877        0.0978494118
 H         -2.5153198044       -0.8441934531       -0.2336589850
 H         -1.6867183976        2.6777113879       -0.7168694242
 H         -3.6297870248        0.9065172397        0.8435222322
 H         -3.9446820092        2.5720969296        0.1565016109
 H          0.0997934766        2.9961925064        0.3834731961
 H          1.7100413503        2.4722131472        0.3408294018
  22
        -34.10007824
 C          3.5695506342       -0.2888693048       -0.4756354689
 C          2.5909819370        0.3086499396        0.1901936356
 C          1.1780194793       -0.0623167353        0.1083810967
 C          0.8356548026       -1.4023566333       -0.0389628978
 C         -0.4924853609       -1.7710249304       -0.0621602245
 F         -0.8127754568       -3.0832707455       -0.1778936430
 C         -1.5024786676       -0.8389961518        0.0444487991
 C         -1.1899390422        0.5129077495        0.1480856503
 C         -2.3081880867        1.4557449801        0.2137388485
 C         -2.3780343879        2.6408614683       -0.3803013723
 C          0.1615369507        0.9119911049        0.2003802618
 N          0.4840205976        2.2478645014        0.2871436201
 H          4.5974326692        0.0084131260       -0.3581607844
 H          3.3792980828       -1.0846323035       -1.1753375612
 H          2.8401070606        1.1228581977        0.8621500147
 H          1.6021702056       -2.1577216402       -0.0989224894
 H         -2.5326141361       -1.1592040960        0.0250702934
 H         -3.1662644542        1.0930472083        0.7680047270
 H         -1.5888691928        3.0197797775       -1.0072670376
 H         -3.2591954343        3.2550378349       -0.2975718295
 H         -0.2344471835        2.8421134677        0.6717518704
 H          1.4196023768        2.4628452576        0.5907473749
  22
        -34.09851573
 C          3.3930724115        0.8060329617       -0.2393019690
 C          2.6212615207       -0.0883818175        0.3661759942
 C          1.1837039344       -0.2795871782        0.1683102520
 C          0.7098340823       -1.5888154641        0.1696579081
 C         -0.6242183864       -1.8383812580       -0.0671980375
 F         -1.0645229101       -3.1199993393       -0.0999021996
 C         -1.5242369974       -0.8112239836       -0.2662521365
 C         -1.0889541125        0.5055538196       -0.1958012979
 C         -2.1038927137        1.5619807725       -0.3335499601
 C         -2.2957127692        2.5601100722        0.5168227143
 C          0.2773522772        0.7874278242        0.0000108274
 N          0.7274908455        2.0863180710       -0.0370368769
 H          4.4521951414        0.8486919875       -0.0470526397
 H          3.0141828366        1.4897788617       -0.9795180327
 H          3.0762574224       -0.8018108125        1.0438112546
 H          1.3899433419       -2.4122716844        0.3231893997
 H         -2.5658810974       -1.0331532125       -0.4387455308
 H         -2.7688283089        1.4489944637       -1.1813651905
 H         -1.7016919909        2.6798214154        1.4094563601
 H         -3.0820560908        3.2816552637        0.3732052688
 H          0.0194297690        2.7987378976        0.0291974052
 H          1.5893528025        2.2742291641        0.4490174742
