  21
        -30.12658424
 C         -3.7232213459        0.7962665313       -0.0030791521
 C         -2.9232201414       -0.2629685961       -0.0016127643
 C         -1.4706814229       -0.1677319542        0.0006952050
 C         -0.6684740649       -1.3178555360       -0.0004097481
 C          0.7040698870       -1.1765254748        0.0004497975
 C          1.6055254786       -2.3694431113       -0.0033991429
 C          1.1913956890        0.1515480061        0.0038729574
 C          2.6163389117        0.4593004611        0.0060862571
 C          3.0871346705        1.7010069939       -0.0095862522
 N          0.3588631435        1.1908052710        0.0053508775
 N         -0.9198115033        1.0462100805        0.0032670630
 H         -4.7954230094        0.7008654367       -0.0051573642
 H         -3.3077600273        1.7890341386       -0.0021272872
 H         -3.3239487795       -1.2689834220       -0.0024988080
 H         -1.1249579770       -2.2987524187       -0.0026354477
 H          1.0195287330       -3.2859754035       -0.0113879805
 H          2.2408394252       -2.3711896366        0.8816516018
 H          2.2480291739       -2.3600392858       -0.8831372258
 H          3.2917609778       -0.3840940063        0.0210617759
 H          2.4121649045        2.5388548360       -0.0249572166
 H          4.1436319498        1.9077166759       -0.0073612957
