33
 energy: -42.359962931552 gnorm: 0.000030376324 xtb: 6.4.1 (23d549d)
C        -3.24146438620000    3.08722645440000    0.61235853790000
C        -3.19769125750000    1.85111191220000    0.12186468050000
C        -2.06444093260000    0.96707458220000    0.19165794330000
C        -0.82378430430000    1.16255944580000    0.73254086140000
C         0.06201711610000    0.06402980640000    0.62212373600000
C         1.46268095650000    0.24813464740000    1.16480420340000
C         2.44439427180000   -0.92161800400000    1.05196656930000
C         2.87632717630000   -1.19800092140000   -0.38670403600000
C         3.49198257990000    0.04805010430000   -1.01263573480000
C         2.50029096140000    1.20268261830000   -0.93600809180000
C         2.12872521530000    1.47711233020000    0.51667407150000
C        -0.54096495800000   -1.01338329530000    0.00683328800000
C        -0.10578118800000   -2.36835739780000   -0.24270468090000
C        -0.63901706340000   -3.16542426330000   -1.16433220640000
S        -2.17541078460000   -0.62603915870000   -0.47915717470000
H        -4.12696292910000    3.69164324910000    0.52605626620000
H        -2.40197645260000    3.53548275020000    1.11484083660000
H        -4.06632406340000    1.43908359750000   -0.37554757130000
H        -0.55415724720000    2.08001735280000    1.22417463170000
H         1.33625915470000    0.46712553320000    2.23530082690000
H         2.02717083630000   -1.81661058760000    1.51475705880000
H         3.33345853490000   -0.65469460680000    1.63120934360000
H         2.01767278000000   -1.50139444860000   -0.98644481160000
H         3.59841770680000   -2.01795977560000   -0.39586824290000
H         3.75924724840000   -0.15190749750000   -2.05224644630000
H         4.40589741260000    0.31838805010000   -0.47742869050000
H         1.59950629400000    0.94935639360000   -1.49987852260000
H         2.93419058000000    2.10110162730000   -1.38043138020000
H         1.47323351490000    2.34617565950000    0.56888855920000
H         3.03621016910000    1.71381136650000    1.07814575070000
H         0.67505233270000   -2.75248706540000    0.39498127910000
H        -1.42243845210000   -2.82814615080000   -1.82295019780000
H        -0.30478930870000   -4.18003712410000   -1.29116272260000
