  24
        -42.12532962
 C         -2.1178207899       -2.2616825313       -0.4128468729
 C         -1.1823435326       -2.0023441758        0.4883872778
 C         -0.0385863708       -1.1112767162        0.2793678772
 C          1.2164991897       -1.5452573943        0.6944712759
 C          2.3684448314       -0.8234028609        0.4449957679
 C          2.2857919922        0.3815135347       -0.2451370477
 O          3.3414021441        1.1757663589       -0.5691479576
 C          4.6323557338        0.7664802369       -0.1866373269
 C          1.0331397922        0.8451094220       -0.6406159731
 C         -0.1246088210        0.1301007912       -0.3707761621
 C         -1.3974946332        0.7558613906       -0.7456898471
 C         -2.4552158124        0.8553127912        0.0383910401
 F         -2.5792471042        0.3851357966        1.2731645198
 F         -3.5841299851        1.4721406418       -0.3097329483
 H         -2.9139090572       -2.9584897157       -0.2148701142
 H         -2.1208062643       -1.7945837162       -1.3840074255
 H         -1.1914687543       -2.5225743307        1.4377230445
 H          1.2939901226       -2.4907350485        1.2116867823
 H          3.3158175518       -1.2102674826        0.7850172863
 H          5.3059554029        1.5414565493       -0.5487022134
 H          4.9031336753       -0.1903371561       -0.6444957439
 H          4.7234290080        0.6884946266        0.9014837761
 H          0.9804192022        1.7966517718       -1.1464587698
 H         -1.4525157446        1.2492193211       -1.7043868952
