  23
        -42.06730253
 C          4.7855132488        0.0756807164        0.0983811218
 C          3.5878651556        0.6488204117        0.0573094941
 C          2.3019261525       -0.0309573064       -0.0115544797
 C          2.1610998771       -1.4231128147       -0.0360990974
 C          0.9209086016       -2.0215150411       -0.0930331105
 C         -0.2557167504       -1.2633835839       -0.1347348377
 C         -1.5819664527       -1.8609832121       -0.1841335008
 C         -1.8793417230       -3.0748116102        0.2657922982
 C         -0.0964091347        0.1187605628       -0.1272180942
 S         -1.4933601272        1.2041665173       -0.1460866491
 O         -1.0947116854        2.5553829700        0.0332185875
 O         -2.4620267809        0.8832928645       -1.1357907966
 F         -2.1658653612        0.7417911059        1.2897229045
 C          1.1320275753        0.7312349212       -0.0563903235
 H          5.6831888269        0.6668406002        0.1493913381
 H          4.9260700425       -0.9913983051        0.0830781039
 H          3.5192976609        1.7287969722        0.0753370515
 H          3.0403695669       -2.0474777586       -0.0089845679
 H          0.8512860881       -3.0977243508       -0.1214707640
 H         -2.3536643248       -1.2315469176       -0.6011835602
 H         -1.1494222588       -3.7186118319        0.7283118575
 H         -2.8823690471       -3.4593222669        0.2077791561
 H          1.1622173501        1.8092726837       -0.0320869843
