  24
        -37.20216083
 C          1.1387776789        1.5571696975        2.0997480071
 C          1.6856508741        0.3666906420        1.8938626726
 C          1.6161613342       -0.4099882178        0.6677124332
 C          2.6523450916       -1.3143984223        0.3052459603
 C          2.4568121561       -1.9084288195       -0.8948985782
 S          0.9859711080       -1.4093254569       -1.6304736477
 C          0.6203140829       -0.3673836955       -0.2833431889
 C         -0.6209145074        0.3672458506       -0.2822093928
 S         -0.9883989578        1.4101187978       -1.6280914330
 C         -2.4575125318        1.9098060348       -0.8893690465
 C         -2.6512513638        1.3150899573        0.3107359907
 C         -1.6150653232        0.4097329155        0.6706023727
 C         -1.6824493082       -0.3678393080        1.8963268713
 C         -1.1372507746       -1.5595508891        2.0992666979
 H          1.2618943371        2.0750351209        3.0352117027
 H          0.5616995623        2.0625873074        1.3451957189
 H          2.2922357175       -0.0839549840        2.6699325587
 H          3.5167917371       -1.4876356054        0.9217658727
 H          3.0838337085       -2.6151554546       -1.4011326441
 H         -3.0849616346        2.6172674720       -1.3940299642
 H         -3.5144250713        1.4884600622        0.9289578004
 H         -2.2856121489        0.0833631529        2.6748338531
 H         -0.5631696106       -2.0650919832        1.3424819420
 H         -1.2580016831       -2.0780133561        3.0347317722
