  23
        -31.18388958
 C         -2.7988901327       -1.3659142806        0.1803718197
 C         -1.5511467910       -1.3301598410       -0.2713287514
 C         -0.6167278724       -0.2410484876       -0.0914516643
 C         -0.8785709497        1.1467546806        0.0032590811
 C         -2.1863828065        1.8530639668        0.0085104752
 N          0.2545386040        1.8265130452        0.0566378267
 N          1.2439507624        0.9400315553       -0.0018675501
 C          2.6047717234        1.3844658428        0.0716659899
 C          0.7809610878       -0.3325658966       -0.0904104469
 C          1.6656140651       -1.4692383570       -0.1527032365
 C          1.3510896719       -2.7009982302        0.2353431360
 H         -3.4414176709       -2.2075621344       -0.0163516675
 H         -3.2174679157       -0.5757096737        0.7778828675
 H         -1.1629868298       -2.1686490381       -0.8386476072
 H         -2.8675307419        1.3926182989       -0.7046794039
 H         -2.0300312729        2.8963804295       -0.2526163472
 H         -2.6413096658        1.8111821915        0.9980591632
 H          2.5846348434        2.4649907059        0.1973505111
 H          3.1455077433        1.1398447539       -0.8457563654
 H          3.1173752651        0.9287510016        0.9212937683
 H          2.6567856147       -1.2673519930       -0.5411317763
 H          0.3947710303       -2.9351355900        0.6690868946
 H          2.0532115626       -3.5121607923        0.1464202859
  23
        -31.18339915
 C         -2.1437704071       -2.1481048747       -0.2125455220
 C         -2.0712181923       -0.8773851793        0.1671280831
 C         -0.8940197309       -0.0434391103        0.1000776692
 C         -0.8793388858        1.3654230016       -0.0186030448
 C         -2.0414759400        2.2899758698       -0.0841440232
 N          0.3632967466        1.8083052842       -0.0810236113
 N          1.1614475057        0.7439834381       -0.0144065122
 C          2.5799549915        0.9472722292        0.0152376196
 C          0.4573704921       -0.4112708428        0.1006812162
 C          1.0252263998       -1.7252381727        0.2872162121
 C          2.1713539926       -2.1797953405       -0.2080332650
 H         -3.0605007088       -2.7070818916       -0.1300026709
 H         -1.3024874886       -2.6680427897       -0.6382094880
 H         -2.9581400785       -0.3788378290        0.5396140357
 H         -2.6562339277        2.1935588461        0.8103438446
 H         -2.6618661923        2.0611533116       -0.9499413020
 H         -1.6830396795        3.3123208059       -0.1618956602
 H          2.7565971684        1.9766322180        0.3236666445
 H          3.0205340949        0.7993200206       -0.9739339153
 H          3.0445955337        0.2611882772        0.7236612433
 H          0.4071533131       -2.3804651409        0.8893858478
 H          2.8005181872       -1.5971701825       -0.8576141402
 H          2.5053185635       -3.1821155046       -0.0008462398
  23
        -31.18263317
 C         -3.1026840668       -1.1328369606        0.0946543522
 C         -1.7901314792       -1.2949087238       -0.0366069487
 C         -0.7792054223       -0.2648745089        0.0017790259
 C         -0.9053832460        1.1439457417       -0.0477007483
 C         -2.1215644636        1.9938352166       -0.1367939599
 N          0.2889280387        1.7094648708       -0.0188043950
 N          1.1916517975        0.7335698401        0.0348182084
 C          2.5749063807        1.0917123001        0.1467108212
 C          0.6073222998       -0.4906106087        0.0503009303
 C          1.2890307110       -1.7581845178        0.1376982683
 C          2.5371823971       -2.0416878177       -0.2233166222
 H         -3.7706040943       -1.9764534486        0.0472310471
 H         -3.5602373806       -0.1756169092        0.2615267390
 H         -1.4059648112       -2.2963596022       -0.1901387998
 H         -2.7517167775        1.6742935286       -0.9652750415
 H         -1.8163940741        3.0252764826       -0.2929472118
 H         -2.7000318188        1.9360096808        0.7847530371
 H          2.6132603426        2.1355172327        0.4549477552
 H          3.0879366895        0.9921194265       -0.8130379583
 H          3.0704648960        0.4674618360        0.8907455240
 H          0.6712035659       -2.5555262595        0.5316090466
 H          3.2050199944       -1.3243011740       -0.6643776813
 H          2.9273391653       -3.0386902915       -0.1093841919
  23
        -31.18233242
 C         -1.9388692493       -2.1622558419       -0.5433517563
 C         -1.8698885354       -0.9998003108        0.0920496676
 C         -0.7443401135       -0.0876745939        0.0770202617
 C         -0.8664925258        1.3217690107        0.1261062210
 C         -2.1102713614        2.1251895168        0.2600066970
 N          0.3177216610        1.8960413453        0.0127746474
 N          1.2076149515        0.9154134761       -0.1087220603
 C          2.6021474709        1.2333041536       -0.2071812072
 C          0.6284290926       -0.3137573162       -0.0682611986
 C          1.4389210701       -1.5109317956       -0.1102744648
 C          1.1383583792       -2.6588673033        0.4846538237
 H         -2.8274116899       -2.7695238500       -0.5099124064
 H         -1.1157363562       -2.5450954421       -1.1224302353
 H         -2.7343313370       -0.6339852239        0.6337978451
 H         -2.6325915383        1.8699833979        1.1816189563
 H         -2.7809536201        1.9319753799       -0.5764918034
 H         -1.8547220094        3.1807769479        0.2760660149
 H          2.6897055642        2.3159756857       -0.1438935490
 H          3.0140028213        0.8954778166       -1.1611212640
 H          3.1649673670        0.7746702250        0.6084008559
 H          2.3753914096       -1.4148831447       -0.6471462821
 H          0.2306988918       -2.7833222629        1.0490509462
 H          1.7944044518       -3.5101408175        0.4254269801
