  40
        -55.56177065
 C         -2.6311521930        3.2105906371        0.4192059417
 C         -2.5124247248        1.7367671502        0.1791078618
 C         -3.5861902337        0.8941565448        0.4508692420
 C         -3.4962134472       -0.4669736686        0.2249351869
 C         -4.6500177678       -1.3811630523        0.5108543309
 C         -2.3134724812       -1.0022143764       -0.2783875488
 C         -1.2384200344       -0.1740640333       -0.5553966271
 O         -0.0282448015       -0.5942680453       -1.0648896853
 C          0.1853952562       -1.9712143444       -1.3022740981
 C          0.5084163687       -2.7815835827       -0.0413702551
 C          1.9099624618       -2.5009239484        0.5040901607
 C          2.0107866810       -1.1807856393        1.2799559232
 C          3.4117643768       -0.5722785438        1.2004486551
 C          3.7133567351        0.0722608786       -0.1629598004
 C          3.0922294792        1.4552424877       -0.2497680855
 O          3.6611760933        2.4466236018        0.1145994859
 O          1.8553494798        1.5268842002       -0.7505248976
 C         -1.3433873522        1.1967596472       -0.3239049298
 H         -3.3132828772        3.6537907625       -0.3062645792
 H         -1.6644819897        3.6976348108        0.3257751401
 H         -3.0306991882        3.4050559269        1.4130024722
 H         -4.5011953785        1.3123275938        0.8449173570
 H         -5.4765713842       -0.8352050860        0.9575284753
 H         -4.3488535733       -2.1759957958        1.1920432554
 H         -5.0007487766       -1.8469973016       -0.4097134931
 H         -2.2648782528       -2.0674393549       -0.4431438412
 H          1.0367009574       -2.0055425549       -1.9901457256
 H         -0.6788890668       -2.4013466777       -1.8212501312
 H          0.4303643519       -3.8382438120       -0.3050459074
 H         -0.2327818496       -2.5683201573        0.7305484193
 H          2.6117301862       -2.4990523782       -0.3328566315
 H          2.2049456709       -3.3213003496        1.1614338870
 H          1.7628571944       -1.3650117228        2.3272747832
 H          1.2808793656       -0.4639903856        0.9066824382
 H          4.1494191228       -1.3536969418        1.3960909499
 H          3.5274177449        0.1912055165        1.9720845945
 H          3.3537601585       -0.5592643933       -0.9772642769
 H          4.7919513782        0.1987336210       -0.2646356549
 H          1.4365998848        0.6661902305       -0.9453007544
 H         -0.4997460493        1.8313917798       -0.5436368468
  40
        -55.56052329
 C         -1.6615447476        3.0582338246       -0.8118995359
 C         -1.8705648421        1.6015219438       -0.5310384300
 C         -2.7642508599        1.1946528487        0.4516748962
 C         -2.9498063863       -0.1484643629        0.7366385455
 C         -3.9092399454       -0.5741145415        1.8069571446
 C         -2.2192001018       -1.1050517979        0.0417700688
 C         -1.3128906304       -0.7176695909       -0.9347126957
 O         -0.5431912682       -1.5637538844       -1.6826929847
 C         -0.3524705897       -2.8990579990       -1.2652023472
 C          0.4218614077       -3.0546612554        0.0488947792
 C          1.8498641839       -2.5067987663        0.0018524376
 C          1.8795558151       -0.9822817072       -0.0957448807
 C          3.2839792441       -0.4048288602        0.0544481663
 C          3.3115625245        1.1092694212       -0.2058040551
 C          2.5448290931        1.8585576845        0.8679962672
 O          3.0524535498        2.2831882212        1.8660989713
 O          1.2298516236        2.0258415895        0.6492610956
 C         -1.1507410995        0.6388427298       -1.2178312851
 H         -2.5978079897        3.6048103515       -0.7280981819
 H         -1.2528983194        3.2111166326       -1.8079994830
 H         -0.9638751251        3.4744623104       -0.0848225456
 H         -3.3248644027        1.9378735399        0.9989904715
 H         -4.7208739017        0.1423575798        1.9062567937
 H         -3.3928382329       -0.6320107443        2.7657694481
 H         -4.3275050807       -1.5543722249        1.5898174528
 H         -2.3796265725       -2.1480888671        0.2675020175
 H          0.2152594241       -3.3518636558       -2.0832704920
 H         -1.3163228416       -3.4197398454       -1.1894636692
 H          0.4534328900       -4.1220156054        0.2772906367
 H         -0.1206210325       -2.5536726518        0.8530319553
 H          2.3818984259       -2.9417400243       -0.8472005799
 H          2.3673104604       -2.8159258768        0.9132959539
 H          1.2307988113       -0.5761756959        0.6847140424
 H          1.4802492474       -0.6889096302       -1.0674691128
 H          3.9540088831       -0.8903579473       -0.6586398238
 H          3.6648527746       -0.5995609537        1.0586940530
 H          2.8938543848        1.3236241429       -1.1927596379
 H          4.3445611441        1.4578806350       -0.1751389191
 H          0.9066370193        1.5858639218       -0.1521725317
 H         -0.4689469366        0.9163888943       -2.0095369097
  40
        -55.55969688
 C         -2.2156802989        1.6123221451        2.3597763326
 C         -1.9692888435        0.8550283872        1.0894732681
 C         -1.9348925034        1.5175732290       -0.1275976336
 C         -1.7465297850        0.8208630011       -1.3189830606
 C         -1.7187966385        1.5625537376       -2.6197180251
 C         -1.5588386604       -0.5485545067       -1.2700454269
 C         -1.5616116654       -1.2290806493       -0.0520768986
 O         -1.3393001330       -2.5739551851       -0.1282559075
 C         -0.8523713588       -3.2577463369        1.0079327159
 C          0.5130211819       -2.7368696715        1.4701840137
 C          1.5372040063       -2.7321416724        0.3283335955
 C          2.4993788215       -1.5442198589        0.3975902449
 C          1.8418322387       -0.2406491681       -0.0629613498
 C          2.8009207377        0.9407449357        0.0706484018
 C          2.3476277354        2.2411865888       -0.5730445686
 O          3.1230621579        3.0779317084       -0.9401374810
 O          1.0289026861        2.4398180168       -0.6980287458
 C         -1.7833122169       -0.5225016709        1.1235979237
 H         -1.8354265703        2.6283547184        2.2838749800
 H         -1.7460527734        1.1200625138        3.2086971607
 H         -3.2867803895        1.6686689046        2.5551229498
 H         -2.0681037677        2.5887715150       -0.1571299396
 H         -2.6602019852        2.0871470545       -2.7746479991
 H         -1.5577991041        0.8839464500       -3.4529219011
 H         -0.9227434084        2.3059627183       -2.6110405994
 H         -1.4028987279       -1.1201366136       -2.1717960467
 H         -0.7657752796       -4.2954774589        0.6755003874
 H         -1.5760622813       -3.2193396209        1.8326419155
 H          0.8574943906       -3.3609913149        2.2956481800
 H          0.3909329074       -1.7236506261        1.8541833745
 H          1.0062727766       -2.6939812674       -0.6249534813
 H          2.1069614442       -3.6622906655        0.3485241552
 H          3.3605716717       -1.7455045820       -0.2425428958
 H          2.8672020719       -1.4306257923        1.4199919057
 H          0.9424955709       -0.0662450288        0.5340607077
 H          1.5365263372       -0.3541064697       -1.1066753845
 H          3.7691474166        0.6956829789       -0.3701270019
 H          2.9797912496        1.1589711340        1.1280881795
 H          0.4817886361        1.7019255401       -0.3852842370
 H         -1.8255752061       -1.0301977998        2.0752271951
  40
        -55.55911399
 C         -1.4781653449        2.2794572048       -2.1019113294
 C         -1.5906802002        1.1956971773       -1.0713255233
 C         -2.0256424321        1.4781598647        0.2132570016
 C         -2.1292061660        0.4671735096        1.1683817193
 C         -2.6085154511        0.7926712455        2.5499905246
 C         -1.7665254642       -0.8197501972        0.8221240147
 C         -1.3023138441       -1.1238533971       -0.4630326547
 O         -0.9787041061       -2.4303546801       -0.6476857699
 C         -0.3605200210       -2.8935137349       -1.8321465831
 C          1.1499575494       -3.1168261123       -1.6776363780
 C          1.9310579511       -1.8611231485       -1.2693651323
 C          2.0917085295       -1.7489734698        0.2489875128
 C          2.5661246251       -0.3675721416        0.7038672990
 C          1.4313124227        0.6488731793        0.6402865192
 C          1.7895124810        2.0182061595        1.1723446565
 O          2.8682478790        2.3501776199        1.5675893582
 O          0.7541308652        2.8820693286        1.1677637929
 C         -1.2271149220       -0.1060584614       -1.4050867909
 H         -1.9126481611        3.2075681182       -1.7401651331
 H         -1.9885618686        1.9897845261       -3.0187377528
 H         -0.4323746071        2.4643839362       -2.3497096662
 H         -2.3248392000        2.4845570281        0.4719708879
 H         -1.9455761836        1.5171470681        3.0228972532
 H         -2.6471518492       -0.0994007035        3.1691319771
 H         -3.6038063693        1.2327472204        2.5098984950
 H         -1.8329367754       -1.6248191605        1.5375672415
 H         -0.5554063855       -2.2243614416       -2.6738793138
 H         -0.8379038212       -3.8556341463       -2.0507455586
 H          1.5093264532       -3.4857173992       -2.6402010141
 H          1.3176592088       -3.8996482465       -0.9364247575
 H          1.4231264463       -0.9791042982       -1.6602931757
 H          2.9237829286       -1.8887587934       -1.7232693139
 H          2.8120623489       -2.5018867152        0.5755677765
 H          1.1402686517       -1.9741354454        0.7337109673
 H          3.3996852956       -0.0309274821        0.0858249439
 H          2.9245614459       -0.4234626246        1.7327410525
 H          0.5796379331        0.2767258647        1.2175190109
 H          1.0930798757        0.7779945684       -0.3909744302
 H         -0.0623107661        2.4782037541        0.8257397402
 H         -0.8906433953       -0.2918117724       -2.4139444590
  40
        -55.55700708
 C         -5.0682596342        1.1496543319        0.9169886862
 C         -3.7318193574        0.7033064943        0.4068108504
 C         -2.8689142540        1.6223073308       -0.1795720534
 C         -1.6329375508        1.2281330510       -0.6646081887
 C         -0.7270441613        2.2387066158       -1.3080649285
 C         -1.2438494262       -0.1011397373       -0.5527997653
 C         -2.0951100905       -1.0344092822        0.0274409586
 O         -1.8398241650       -2.3679898197        0.1599420322
 C         -0.5513687209       -2.8639769810       -0.1317144176
 C          0.4555902139       -2.5287419684        0.9740822765
 C          1.9021567284       -2.8232869284        0.5750996402
 C          2.5042343761       -1.8119570991       -0.4037788729
 C          2.7491419150       -0.4449546003        0.2340240380
 C          3.3281612332        0.5510028791       -0.7776262984
 C          3.5470750663        1.9050978091       -0.1280163899
 O          4.6227303014        2.3758173610        0.0973958889
 O          2.4216543629        2.5602430970        0.2058480534
 C         -3.3379509967       -0.6181893152        0.5038904022
 H         -4.9466931758        1.9352414348        1.6614255768
 H         -5.6091869322        0.3221241479        1.3675822590
 H         -5.6668318128        1.5545160147        0.1018981878
 H         -3.1678792041        2.6570524632       -0.2629477892
 H         -1.2705339461        2.8009745645       -2.0652771569
 H          0.1218939128        1.7583851629       -1.7912217145
 H         -0.3659123615        2.9561022257       -0.5702432156
 H         -0.2806574873       -0.3942630827       -0.9409561355
 H         -0.2091442549       -2.5006293314       -1.1077054954
 H         -0.6803241399       -3.9474426525       -0.2043028510
 H          0.1969775433       -3.1161505649        1.8567334318
 H          0.3418172069       -1.4783988117        1.2466629529
 H          1.9451218673       -3.8188407867        0.1279401460
 H          2.5183747161       -2.8398309735        1.4761730110
 H          1.8515789527       -1.6997698655       -1.2722249400
 H          3.4567564626       -2.2030824687       -0.7669426843
 H          3.4490354662       -0.5543444687        1.0647935609
 H          1.8132302651       -0.0550684068        0.6419044801
 H          2.6482784466        0.6618764428       -1.6276770837
 H          4.2881627467        0.1903738563       -1.1472959537
 H          1.6209816518        2.0718242107       -0.0350311308
 H         -3.9844332680       -1.3599879840        0.9460054856
  40
        -55.55679705
 C         -4.3595492747        0.4932896525        2.6978265825
 C         -3.8746034524        0.1941861991        1.3101248366
 C         -4.4080047601        0.8415850895        0.2108488292
 C         -3.9594614780        0.5540936209       -1.0754300870
 C         -4.5546776082        1.2660919106       -2.2525992816
 C         -2.9645724708       -0.3890116524       -1.2423768327
 C         -2.4121043224       -1.0510861444       -0.1446095845
 O         -1.4515209288       -1.9731746803       -0.4507024672
 C         -0.7258277393       -2.5990273547        0.5825836153
 C          0.3204216221       -1.6773825714        1.2161551126
 C          1.3537717996       -1.2229929138        0.1883086735
 C          2.3589418459       -0.2424464552        0.7858917518
 C          3.3865153629        0.2138096437       -0.2473799645
 C          4.3901683008        1.2037481522        0.3572771805
 C          5.4134650595        1.6266239656       -0.6785589564
 O          5.4518563498        2.7071687922       -1.1878685198
 O          6.3008242253        0.6719661064       -1.0181123944
 C         -2.8720685443       -0.7545661673        1.1295176659
 H         -5.1023233566        1.2864934745        2.6873997141
 H         -3.5309298682        0.8008399602        3.3345799147
 H         -4.8081932158       -0.3949778755        3.1417348422
 H         -5.1846053016        1.5803269237        0.3477348987
 H         -4.4030534875        2.3409010581       -2.1609888862
 H         -5.6277056145        1.0850945044       -2.3008711851
 H         -4.1025923593        0.9286672376       -3.1812921829
 H         -2.5938230856       -0.6387805544       -2.2244690766
 H         -0.2263444589       -3.4403174144        0.0927149710
 H         -1.4014055959       -3.0002465558        1.3486288490
 H          0.8094070665       -2.2152989752        2.0309286762
 H         -0.1760738041       -0.8000626094        1.6350481367
 H          0.8338003329       -0.7492381051       -0.6462767366
 H          1.8816661291       -2.0963884321       -0.2022915931
 H          2.8725102009       -0.7176974764        1.6260027333
 H          1.8276287037        0.6291887034        1.1733217227
 H          2.8729383125        0.6954924146       -1.0814788380
 H          3.9086203950       -0.6621806383       -0.6434831042
 H          4.8993157067        0.7462948409        1.2105034038
 H          3.8647585401        2.0946450518        0.7014496458
 H          6.1574553444       -0.1511630505       -0.5329340191
 H         -2.4737614561       -1.2510752476        2.0011888450
  40
        -55.55641500
 C         -5.0282641705       -1.2464870774        2.1943138682
 C         -4.2345228095       -0.6720290729        1.0586623104
 C         -4.7193481465        0.3838393998        0.3087501352
 C         -3.9787687310        0.9115905311       -0.7452242839
 C         -4.5246500077        2.0559189802       -1.5450093383
 C         -2.7423049997        0.3678141523       -1.0327143113
 C         -2.2348149036       -0.6961027045       -0.2848869514
 O         -1.0116510676       -1.1521559576       -0.6875529084
 C         -0.3379896922       -2.1281032623        0.0753717606
 C          0.2762555435       -1.5645239489        1.3617650852
 C          1.1927238422       -0.3682015577        1.1035546684
 C          2.4804003697       -0.7377628849        0.3708592517
 C          3.4006482335        0.4716895681        0.2208918521
 C          4.6856556850        0.1103077714       -0.5347326325
 C          5.5689693696        1.3319737282       -0.6951747328
 O          6.5885043062        1.5110048515       -0.0972025891
 O          5.1116809049        2.2481785697       -1.5695260501
 C         -2.9867461084       -1.2115421702        0.7596392135
 H         -5.9922126551       -0.7527685459        2.2837810986
 H         -4.4890930154       -1.1262048967        3.1335667213
 H         -5.1959176771       -2.3118475932        2.0412571388
 H         -5.6864463997        0.8067091131        0.5397948144
 H         -4.6635470491        2.9290973928       -0.9084081066
 H         -5.4942955023        1.7949984349       -1.9665578151
 H         -3.8516669373        2.3209968342       -2.3560033163
 H         -2.1428594526        0.7496486491       -1.8448454587
 H          0.4491765734       -2.4964629305       -0.5874880222
 H         -1.0011596758       -2.9701849929        0.3099772795
 H          0.8308402725       -2.3645058597        1.8558336405
 H         -0.5268917590       -1.2444009623        2.0281529760
 H          1.4494256557        0.0868241810        2.0628157914
 H          0.6425980549        0.3727107946        0.5197393701
 H          2.2405846049       -1.1266755371       -0.6201970569
 H          3.0018987690       -1.5224876087        0.9233438398
 H          3.6668000429        0.8542907114        1.2083063350
 H          2.8612815604        1.2646062037       -0.3052853190
 H          4.4385255520       -0.2960191655       -1.5196466558
 H          5.2416129181       -0.6426521241        0.0241339836
 H          4.2792020045        1.9796298226       -1.9802374000
 H         -2.6305759418       -2.0385540547        1.3545379700
  40
        -55.55617814
 C         -3.5229024004        2.7678822891        1.3264160776
 C         -3.3293114271        1.4190537029        0.7016522407
 C         -4.2855516204        0.9153191984       -0.1762308940
 C         -4.1247023633       -0.3232648101       -0.7696019291
 C         -5.1527958039       -0.8709267614       -1.7142574492
 C         -2.9896546791       -1.0780519763       -0.4858517807
 C         -2.0288746542       -0.5902698626        0.3863655298
 O         -0.8826102621       -1.2422805256        0.7343490287
 C         -0.6083891667       -2.4994368424        0.1544324632
 C          0.7346325721       -3.0025015591        0.6801775153
 C          1.9431714210       -2.3368089936        0.0217786220
 C          2.0725418813       -0.8553522432        0.3667919222
 C          3.3199762149       -0.2379535535       -0.2605002591
 C          3.4214403052        1.2596630178        0.0566858957
 C          4.6916540891        1.8377296747       -0.5333521892
 O          4.7311982043        2.5397003661       -1.5001720374
 O          5.8231792964        1.4814068119        0.1060427671
 C         -2.2072106902        0.6624058142        0.9759051169
 H         -4.4906328764        2.8216927952        1.8226506330
 H         -3.4981416074        3.5435963015        0.5615684562
 H         -2.7437741384        2.9756023064        2.0549476916
 H         -5.1649715489        1.5040967689       -0.3941623923
 H         -5.9735952709       -0.1706695608       -1.8443955044
 H         -5.5542965674       -1.8101816519       -1.3353949537
 H         -4.7069528940       -1.0687545101       -2.6883344271
 H         -2.8795576296       -2.0434048761       -0.9554072488
 H         -0.5773162562       -2.4163901887       -0.9411208600
 H         -1.3990258550       -3.2131657101        0.4277135007
 H          0.7835084939       -4.0783726580        0.5020880499
 H          0.7627258039       -2.8326362641        1.7575894797
 H          1.8712066927       -2.4519120839       -1.0623401703
 H          2.8456630429       -2.8601809784        0.3485852499
 H          2.1147094935       -0.7442498263        1.4526468731
 H          1.1899671382       -0.3208224741        0.0179923389
 H          3.2870456234       -0.3665591078       -1.3442816247
 H          4.2069977682       -0.7640992319        0.1058592861
 H          3.4130043038        1.4132195612        1.1394410947
 H          2.5696830069        1.7836800755       -0.3768291557
 H          5.6484098005        0.9144562048        0.8686928459
 H         -1.4457331757        1.0203099567        1.6516374721
  40
        -55.55573882
 C         -5.3187606722        2.3469599560        0.7635301465
 C         -4.3854286133        1.2185489890        0.4430238488
 C         -4.5617254155        0.4787815837       -0.7221469898
 C         -3.7165762815       -0.5724620412       -1.0311632665
 C         -3.9270316433       -1.3847582937       -2.2746578607
 C         -2.6736602111       -0.8916209167       -0.1678383014
 C         -2.4829289288       -0.1635253111        0.9979763104
 O         -1.5098528201       -0.3919216151        1.9290292769
 C         -0.5169125316       -1.3610437904        1.6811314738
 C          0.5458303592       -0.8709113463        0.6937482782
 C          1.6206325184       -1.9295576484        0.4616862121
 C          2.6424169597       -1.5266141007       -0.6022521362
 C          3.5458360401       -0.3776299809       -0.1582953013
 C          4.6114335329       -0.0679460976       -1.2174196778
 C          5.4903777862        1.0827738755       -0.7664280878
 O          6.6246702162        0.9642647826       -0.4088147488
 O          4.8913316251        2.2884885966       -0.7736668144
 C         -3.3468019256        0.8916490699        1.2934532160
 H         -6.3197297200        1.9624400078        0.9573216385
 H         -5.3850374886        3.0372064476       -0.0759833738
 H         -4.9828212067        2.8928700536        1.6409353075
 H         -5.3705623796        0.7301146569       -1.3931060363
 H         -4.4600742151       -0.8099318764       -3.0279634226
 H         -4.5195994783       -2.2706853386       -2.0438778807
 H         -2.9777454923       -1.7162375440       -2.6903549491
 H         -2.0286609132       -1.7174122451       -0.4261711139
 H         -0.9633062195       -2.3023607061        1.3360315790
 H         -0.0568054008       -1.5414045804        2.6571871634
 H          0.9851463449        0.0407141131        1.1010942874
 H          0.0663437123       -0.6160853677       -0.2541589193
 H          1.1365924520       -2.8563189597        0.1438651764
 H          2.1380152727       -2.1348251499        1.4010506008
 H          2.1173240862       -1.2443759418       -1.5181536782
 H          3.2669345409       -2.3922197563       -0.8327995937
 H          4.0434376113       -0.6478482744        0.7750466219
 H          2.9403431983        0.5113437396        0.0322530440
 H          4.1324318967        0.1854282097       -2.1674573145
 H          5.2454683059       -0.9417244408       -1.3686202186
 H          3.9778069227        2.2440746936       -1.0853853942
 H         -3.1805470187        1.4426622365        2.2060212656
  40
        -55.55563372
 C         -3.4645188007        2.1893330212        1.7506526093
 C         -2.8547824189        1.1435321302        0.8663689199
 C         -2.6045696642        1.4172821378       -0.4744998863
 C         -2.0711875630        0.4493412849       -1.3084580651
 C         -1.8167195122        0.7333351784       -2.7593449410
 C         -1.7717229680       -0.8085031761       -0.7970930581
 C         -1.9943068391       -1.0942812046        0.5435206140
 O         -1.7489999244       -2.2842870634        1.1642716728
 C         -0.9258042181       -3.2698806431        0.5755416101
 C          0.5594610811       -3.0586867635        0.8939855555
 C          1.1508329129       -1.8399447181        0.1900673484
 C          2.6021999052       -1.5824311909        0.5882245734
 C          3.2280661889       -0.4357585597       -0.2046337829
 C          2.5169552091        0.8980559403        0.0164057766
 C          3.2726812979        2.0509554520       -0.6153719833
 O          4.3427312851        1.9646400464       -1.1395587883
 O          2.6361189044        3.2388082032       -0.5415920724
 C         -2.5447893846       -0.1080968764        1.3644255464
 H         -4.5438753285        2.2169603260        1.6000013906
 H         -3.0702516318        3.1756740996        1.5144052329
 H         -3.2744985033        1.9725423498        2.7986919497
 H         -2.8355571897        2.3962875359       -0.8694164214
 H         -1.9280648995        1.7929398615       -2.9744931516
 H         -2.5244803405        0.1823859660       -3.3783969205
 H         -0.8133837127        0.4210011634       -3.0453694756
 H         -1.3592731544       -1.5473296220       -1.4665468767
 H         -1.0832601932       -3.3376927950       -0.5055415125
 H         -1.2594684529       -4.2092237493        1.0276587770
 H          1.1036873769       -3.9586022571        0.6004271694
 H          0.6614200490       -2.9379032279        1.9744580522
 H          0.5492515120       -0.9671436675        0.4451410656
 H          1.0990553478       -1.9857807373       -0.8916826955
 H          3.1886422269       -2.4871835644        0.4152480969
 H          2.6501161771       -1.3573437138        1.6562086721
 H          3.2121470930       -0.6726626079       -1.2698153609
 H          4.2736765937       -0.3202974960        0.0851901452
 H          2.4288746418        1.0994829816        1.0890396708
 H          1.5085446055        0.8751033036       -0.4062656397
 H          1.7792406520        3.1748229885       -0.0998025061
 H         -2.7212776550       -0.3514944294        2.4006709723
