  21
        -29.72167190
 C         -2.8852760186        0.9893070294       -0.3401792931
 O         -1.6421166921        1.2739735481        0.2611941024
 C         -0.5777611705        0.4314839070        0.1146631312
 C          0.6606244910        1.0727779562        0.1458833601
 C          1.8324078287        0.3429720482        0.0261733927
 C          3.1728857889        1.0080289678        0.0572450619
 N          1.8126018364       -0.9741293591       -0.1329834245
 C          0.6429523708       -1.5814770974       -0.1406958935
 C         -0.5981250146       -0.9654729410       -0.0105944381
 C         -1.8250538108       -1.8305660756        0.0456917224
 H         -3.4079657835        1.9454117960       -0.3854575137
 H         -3.4832470544        0.2906370598        0.2493230747
 H         -2.7603565590        0.6056925237       -1.3556472907
 H          0.6795433822        2.1448798329        0.2634122574
 H          3.2470417637        1.7503526393       -0.7353067953
 H          3.9491976824        0.2608546197       -0.0759372853
 H          3.3205919076        1.5142339061        1.0095454924
 H          0.6910005177       -2.6583408537       -0.2505638511
 H         -1.5248841294       -2.8753390071        0.0924369065
 H         -2.4574067160       -1.7038404923       -0.8315394115
 H         -2.4128474041       -1.6091563881        0.9348901156
