  47
        -56.03243510
 C          0.1293116205       -3.7071429842        1.1818184511
 C          0.0798794899       -2.4428596730        1.5928614916
 C          0.8832528064       -1.3724504922        1.0719321458
 C          0.8458789253       -0.0558101236        1.4530258074
 C          1.7390990965        0.7764799711        0.7534019901
 C          1.7926847644        2.2590223623        0.9594802463
 C          1.1224613469        3.0224981174       -0.1948788944
 C         -0.2890823030        2.5310186544       -0.5151878862
 C         -1.3228131032        2.8676315141        0.5587979263
 C         -2.6540120700        2.1533192936        0.3106669553
 C         -2.6163322769        0.6955168574        0.7675614373
 C         -3.8583920941       -0.1059034001        0.3785801514
 C         -4.0469752907       -0.3126312522       -1.1266016756
 C         -2.8631567825       -0.9626644107       -1.8452943270
 C         -2.5103673508       -2.3430697110       -1.3044921042
 C          2.4858243070        0.0793324222       -0.1731994952
 C          3.5102455432        0.5890788353       -1.0413787893
 C          4.1361354577       -0.1162030411       -1.9802912490
 S          2.0604942358       -1.6105105644       -0.1830140552
 H         -0.5020035747       -4.4665150262        1.6077050670
 H          0.8048690387       -4.0159802001        0.4014111642
 H         -0.6074557549       -2.1474435120        2.3764322485
 H          0.1872155693        0.3041674762        2.2241610240
 H          2.8303271897        2.5916375964        1.0439015427
 H          1.2920234777        2.4998405445        1.8982646371
 H          1.7341630656        2.9068954187       -1.0923585667
 H          1.0934337306        4.0853792813        0.0561660119
 H         -0.2539374078        1.4512391353       -0.6676861259
 H         -0.6092074242        2.9817334244       -1.4581342308
 H         -1.4818162173        3.9487268747        0.5666219894
 H         -0.9486538864        2.5840429073        1.5434523384
 H         -2.8859996247        2.2055640010       -0.7539628699
 H         -3.4529795158        2.6693085806        0.8487265916
 H         -2.5259829531        0.6773785835        1.8575792250
 H         -1.7320607146        0.2035603687        0.3633277490
 H         -4.7452679952        0.4021809275        0.7670280459
 H         -3.8049091710       -1.0821993845        0.8647676889
 H         -4.2549433575        0.6487685193       -1.6011327373
 H         -4.9304710451       -0.9402826842       -1.2710908079
 H         -1.9884581016       -0.3132803779       -1.7818009439
 H         -3.1202896341       -1.0527958023       -2.9039996643
 H         -2.1419869972       -2.2838343316       -0.2835874786
 H         -1.7324055068       -2.7984575173       -1.9134787846
 H         -3.3830706965       -2.9928030429       -1.3206553025
 H          3.7698472988        1.6279692695       -0.8847513336
 H          3.8952035174       -1.1508437110       -2.1606389968
 H          4.9037359265        0.3179403169       -2.5960466217
  47
        -56.03184347
 C          2.9810614084       -4.0646996814        2.1822233056
 C          2.6088099493       -3.5337986521        1.0207400856
 C          2.6905537080       -2.1391659285        0.6867680928
 C          2.3268491304       -1.5497539284       -0.4957294574
 C          2.5282305836       -0.1564823364       -0.5366907548
 C          2.1547326516        0.6557422866       -1.7375713763
 C          0.6390463295        0.8882427767       -1.8056480167
 C          0.1346708944        1.7504022195       -0.6516134936
 C         -1.3597722234        2.0599350014       -0.7399843541
 C         -2.2483123510        0.8355034317       -0.5306651967
 C         -3.7281996413        1.2109745657       -0.4932072915
 C         -4.6201554258       -0.0148816848       -0.3104183072
 C         -6.0968515935        0.3299506528       -0.1105053014
 C         -6.7601007241        1.0416697554       -1.2909541868
 C         -6.7819188916        0.2038757603       -2.5639915479
 C          3.0527535836        0.3316157773        0.6410780749
 C          3.3893279653        1.6880468128        0.9740117524
 C          3.8618935542        2.0897642812        2.1511945257
 S          3.3006890331       -0.9502806586        1.7964870839
 H          2.8972270819       -5.1192628507        2.3759681716
 H          3.3820302556       -3.4537365935        2.9740855075
 H          2.2078871441       -4.1617770329        0.2346017876
 H          1.9267370900       -2.1089096949       -1.3243147930
 H          2.4676441030        0.1146397247       -2.6343545167
 H          2.6703282960        1.6166554193       -1.7294980570
 H          0.1353772484       -0.0793407612       -1.7899920909
 H          0.4002493808        1.3784031001       -2.7525799983
 H          0.6857234299        2.6944329528       -0.6514153792
 H          0.3430277308        1.2480117429        0.2955472874
 H         -1.5800505868        2.5052112374       -1.7135366259
 H         -1.6053104998        2.8022186158        0.0237570228
 H         -1.9735614574        0.3486005523        0.4082806237
 H         -2.0867830523        0.1173044903       -1.3366618680
 H         -3.9853565112        1.7210481919       -1.4232460133
 H         -3.9030563602        1.9095257016        0.3288392398
 H         -4.2787050613       -0.5668757247        0.5693807987
 H         -4.5082657064       -0.6772328453       -1.1704591492
 H         -6.1904130521        0.9653095112        0.7740605701
 H         -6.6439269017       -0.5949614216        0.0901313823
 H         -6.2509995319        1.9870247890       -1.4852861947
 H         -7.7887796372        1.2792515239       -1.0080661650
 H         -5.7760200912        0.0385219925       -2.9407737692
 H         -7.3534007145        0.7100845393       -3.3389969034
 H         -7.2428678751       -0.7634554441       -2.3749474151
 H          3.2313243446        2.4113205661        0.1852534056
 H          4.0255109731        1.3956479204        2.9588897077
 H          4.0977178873        3.1215185267        2.3427290645
  47
        -56.03151609
 C          4.2743939340       -3.9162081220        0.1297526650
 C          4.2110271966       -2.7265155022       -0.4619126542
 C          3.4208087969       -1.6180647715       -0.0036790118
 C          3.3235494634       -0.3781897848       -0.5790492696
 C          2.4689139663        0.5123376432        0.0993604008
 C          2.2061876884        1.8936492257       -0.4144305698
 C          1.1974685272        1.8734046754       -1.5732858299
 C         -0.2052980531        1.4334958269       -1.1521597846
 C         -0.9777191234        2.5309325932       -0.4209906752
 C         -2.2578642893        2.0214996710        0.2413942078
 C         -3.3182918875        1.5725639332       -0.7615089261
 C         -4.6035802691        1.1350496172       -0.0626249007
 C         -5.7514284836        0.8383595763       -1.0292064391
 C         -5.4877435745       -0.2989107686       -2.0176462613
 C         -5.2481381742       -1.6427363061       -1.3398318335
 C          1.8966929908       -0.0601288816        1.2156693119
 C          0.9812085498        0.5302578759        2.1529428848
 C          0.4088703176       -0.1111715258        3.1684916371
 S          2.4305837937       -1.7074304752        1.4203942771
 H          4.8850723885       -4.7110319312       -0.2600355162
 H          3.7131050576       -4.1269160358        1.0251442951
 H          4.7813675064       -2.5307859098       -1.3616280956
 H          3.8607999563       -0.1087960303       -1.4724455668
 H          3.1465000496        2.3131138856       -0.7810894481
 H          1.8438880865        2.5402695261        0.3840415041
 H          1.5701567868        1.1887668148       -2.3387034759
 H          1.1452307667        2.8710138039       -2.0153986229
 H         -0.1281366978        0.5536953111       -0.5096965607
 H         -0.7597745743        1.1424373315       -2.0459665935
 H         -1.2258804859        3.3290396149       -1.1251933274
 H         -0.3427972306        2.9673962576        0.3525488032
 H         -2.6751510714        2.8212471322        0.8593100900
 H         -2.0099916287        1.1886608038        0.9045969751
 H         -2.9265140723        0.7447774151       -1.3522118688
 H         -3.5412696437        2.3978254453       -1.4426692997
 H         -4.9268891350        1.9332372409        0.6112363358
 H         -4.4001814546        0.2566174118        0.5519951468
 H         -5.9733754003        1.7456757426       -1.5972594741
 H         -6.6410995119        0.5918309290       -0.4438000195
 H         -4.6313003262       -0.0501724541       -2.6464475910
 H         -6.3576874103       -0.3848573979       -2.6738886484
 H         -4.3263392731       -1.6317072357       -0.7642473154
 H         -5.1714375017       -2.4322068533       -2.0843950100
 H         -6.0708616992       -1.8827548769       -0.6694794875
 H          0.7587753744        1.5756129771        1.9888441681
 H          0.6029565263       -1.1540147200        3.3578521379
 H         -0.2693479132        0.3861417390        3.8391302517
  47
        -56.03142146
 C         -0.0820278327       -3.5911897598       -1.1603488520
 C          0.8023081296       -3.1546150901       -0.2659669437
 C          1.4020506330       -1.8478942266       -0.2592353110
 C          1.2455253443       -0.7986082118       -1.1286421845
 C          2.0007464079        0.3416050441       -0.7983399462
 C          1.9259243446        1.6180148185       -1.5784293722
 C          0.9532510088        2.6126796612       -0.9274877046
 C         -0.4675241809        2.0595022393       -0.8817743396
 C         -1.4530741866        3.0147274877       -0.2132256722
 C         -2.8558375740        2.4111484522       -0.1141191742
 C         -2.9594349079        1.3508920222        0.9813129389
 C         -4.2839489736        0.5869362012        0.9690664632
 C         -4.5304574701       -0.2590091136       -0.2840553971
 C         -3.4167976106       -1.2498243603       -0.6288898309
 C         -3.1581049202       -2.2748502004        0.4683890562
 C          2.7513161240        0.1654114896        0.3461259611
 C          3.6356639862        1.1069543993        0.9741218737
 C          4.2997542553        0.8917955382        2.1070756445
 S          2.5164617452       -1.4276260530        1.0059275191
 H         -0.4860266417       -4.5868659339       -1.1060268037
 H         -0.4271117550       -2.9768191245       -1.9736945757
 H          1.1189911191       -3.8056578257        0.5387675205
 H          0.6040583411       -0.8426519774       -1.9907986871
 H          1.5835084737        1.3949488470       -2.5910593998
 H          2.9153384934        2.0742345666       -1.6510824680
 H          0.9663921113        3.5469993639       -1.4936473450
 H          1.2881081287        2.8305796434        0.0892775175
 H         -0.4534869319        1.1137472891       -0.3380812947
 H         -0.8063687999        1.8527379544       -1.9004523803
 H         -1.4976775489        3.9402066352       -0.7927966043
 H         -1.0947889940        3.2684542889        0.7872814937
 H         -3.1137821110        1.9744597503       -1.0799990003
 H         -3.5794541513        3.2030002344        0.0937683840
 H         -2.8522934180        1.8415294662        1.9525376642
 H         -2.1379684499        0.6408509284        0.8891897660
 H         -5.1068155761        1.3004009613        1.0646267763
 H         -4.3153347535       -0.0621944312        1.8464818568
 H         -4.6850777766        0.4003727164       -1.1408788649
 H         -5.4599103820       -0.8153502793       -0.1361425812
 H         -2.4935972572       -0.7096864111       -0.8446331136
 H         -3.7044439845       -1.7766815529       -1.5427316545
 H         -2.7923463426       -1.7953783793        1.3724888711
 H         -2.4076199855       -2.9922149604        0.1421932061
 H         -4.0721119773       -2.8137607723        0.7094362263
 H          3.7443404518        2.0514686004        0.4573215447
 H          4.2069274202       -0.0366738870        2.6460817118
 H          4.9527311505        1.6348447033        2.5293078965
  47
        -56.03055481
 C          4.7981779372       -1.7622569313        3.5664129041
 C          4.2192015613       -2.1925846880        2.4477621798
 C          3.2390547539       -1.4664694075        1.6865575575
 C          2.6858265125       -0.2305156010        1.9062786182
 C          1.7518922679        0.1637959920        0.9321783290
 C          0.9886756085        1.4494628093        1.0109236346
 C         -0.4141674146        1.2021381061        1.5791887050
 C         -1.2243510224        2.4823104733        1.7826113992
 C         -1.4753905458        3.3031099319        0.5143564587
 C         -2.0933729964        2.5248550101       -0.6479501392
 C         -3.4494550953        1.9066094672       -0.3177216976
 C         -4.0984381176        1.2268554030       -1.5243901341
 C         -3.3163465496        0.0076052512       -2.0136451521
 C         -4.0978983303       -0.8463124789       -3.0123021329
 C         -4.3583834949       -0.1321749962       -4.3334432357
 C          1.5765348365       -0.7904244228       -0.0496308620
 C          0.7057335277       -0.7315746386       -1.1900683347
 C          0.4739403401       -1.7357484146       -2.0315351888
 S          2.5868736274       -2.1763250490        0.2414460237
 H          5.5262449579       -2.3605972745        4.0847794914
 H          4.5671621107       -0.8047686332        3.9998785874
 H          4.4813071019       -3.1628981457        2.0458354484
 H          2.9448823526        0.3870831759        2.7478061282
 H          0.9148328240        1.9017026510        0.0209943379
 H          1.5233483491        2.1446733080        1.6613356975
 H         -0.3116963270        0.7022789311        2.5462119065
 H         -0.9518280650        0.5192810680        0.9197979628
 H         -0.7022410169        3.1205602491        2.5005167817
 H         -2.1832696300        2.2120476366        2.2294608346
 H         -0.5325549320        3.7394636059        0.1763048574
 H         -2.1377093694        4.1324030903        0.7763575758
 H         -1.4062275989        1.7406701339       -0.9635636930
 H         -2.2154784840        3.2098618745       -1.4914999043
 H         -4.1161384433        2.6924094509        0.0470543418
 H         -3.3359918216        1.1708407672        0.4804416305
 H         -4.1947577714        1.9531736912       -2.3334782172
 H         -5.1049854746        0.9067864312       -1.2427121157
 H         -3.0574271970       -0.6143371692       -1.1525301868
 H         -2.3848414551        0.3289314854       -2.4829066335
 H         -5.0503384038       -1.1430000947       -2.5667223355
 H         -3.5291083134       -1.7585042250       -3.2095840892
 H         -4.9998639590        0.7330258532       -4.1883429467
 H         -4.8482257138       -0.8030219457       -5.0358233640
 H         -3.4224413835        0.2027874256       -4.7760034384
 H          0.2159606895        0.2209159098       -1.3433702734
 H          0.9424636019       -2.6972951519       -1.9017537049
 H         -0.1909510331       -1.6284921567       -2.8701592863
  47
        -56.03045761
 C         -0.0558707156       -2.8872876360       -2.6082621864
 C          0.1575630997       -2.6990525003       -1.3080431967
 C          0.8075902084       -1.5534840080       -0.7309111559
 C          1.3856012513       -0.4652569540       -1.3337414830
 C          1.9037822475        0.4964584259       -0.4452878833
 C          2.4878066404        1.7875247039       -0.9333547645
 C          1.6822553264        3.0251344358       -0.5024867978
 C          0.4908745837        3.3541929897       -1.4051589919
 C         -0.5786323020        2.2675877663       -1.5161369648
 C         -1.2381790332        1.8981990835       -0.1903247977
 C         -2.2406826558        0.7601370949       -0.3701824381
 C         -2.8267282470        0.2987577951        0.9618689494
 C         -3.9019746990       -0.7776514113        0.8034800194
 C         -3.3744745040       -2.1467829504        0.3698705415
 C         -2.5954677261       -2.8587136730        1.4694597430
 C          1.7521607362        0.1208651046        0.8758462739
 C          2.1483377841        0.7083956551        2.1299835556
 C          2.9688839402        1.7349880580        2.3421792148
 S          0.9211232769       -1.4072941488        0.9913704614
 H         -0.5550779751       -3.7684572250       -2.9704097892
 H          0.2571150515       -2.1741363320       -3.3511867954
 H         -0.1809924793       -3.4389426967       -0.5946641345
 H          1.4453118432       -0.3584406268       -2.4032212025
 H          2.5431060945        1.7591421940       -2.0236494403
 H          3.5109066618        1.8778780425       -0.5594981181
 H          2.3494817400        3.8910769885       -0.5179466591
 H          1.3392176222        2.8976801748        0.5238154325
 H          0.8629594828        3.5715855410       -2.4104380400
 H          0.0262978825        4.2680677375       -1.0248472068
 H         -0.1407690172        1.3701600841       -1.9524395032
 H         -1.3509563296        2.6191841028       -2.2059391956
 H         -1.7429513673        2.7733604292        0.2261571855
 H         -0.4782323158        1.5829219498        0.5255988246
 H         -1.7363608727       -0.0760290981       -0.8587314867
 H         -3.0494887199        1.0881502793       -1.0281983619
 H         -3.2720999433        1.1616197445        1.4641679358
 H         -2.0231743689       -0.0712242847        1.6006988224
 H         -4.6323887988       -0.4313158700        0.0676508197
 H         -4.4264585212       -0.8956197310        1.7551821290
 H         -2.7424784661       -2.0385739131       -0.5132132225
 H         -4.2273299316       -2.7690920395        0.0867083981
 H         -1.6943985397       -2.3101011126        1.7302026841
 H         -2.3031175355       -3.8541959701        1.1419215582
 H         -3.2069041961       -2.9605877832        2.3638210011
 H          1.7266418038        0.2010906221        2.9905852311
 H          3.4504573534        2.2816510024        1.5536165183
 H          3.1923875002        2.0539688263        3.3456561425
  47
        -56.03043037
 C          4.0449567072       -3.6750700927        3.5163194551
 C          4.5773490140       -2.7921988968        2.6743492916
 C          3.8422412757       -1.8079284009        1.9271484656
 C          2.4957483974       -1.5486592403        1.8901292522
 C          2.1366306557       -0.4902646274        1.0370914716
 C          0.7162544320       -0.0723843348        0.8170431152
 C          0.1496954319       -0.7280657030       -0.4486552908
 C         -1.3283162998       -0.4126811832       -0.6747708724
 C         -1.5874701023        1.0617376349       -0.9810178451
 C         -3.0133281950        1.3285954199       -1.4645192444
 C         -4.0699551029        1.0402451624       -0.3991040624
 C         -5.4590816474        1.5523298188       -0.7812976927
 C         -6.0475324663        0.8346408238       -1.9949056048
 C         -7.5194723544        1.1717051428       -2.2354812261
 C         -7.7431601914        2.6261692003       -2.6329981118
 C          3.2250523487        0.0692531726        0.3993483037
 C          3.2337579921        1.1567819965       -0.5386222810
 C          4.3145265421        1.6156473101       -1.1649805116
 S          4.6991601866       -0.7226032471        0.8756070904
 H          4.6578948966       -4.3844741863        4.0434441077
 H          2.9868382634       -3.7194753650        3.7072176391
 H          5.6475262252       -2.7818121796        2.5121918843
 H          1.7753316283       -2.1022769102        2.4656386041
 H          0.6554591102        1.0131295811        0.7307757693
 H          0.1168297540       -0.3783337731        1.6769866865
 H          0.2727470377       -1.8106557035       -0.3618234629
 H          0.7311691329       -0.4005982974       -1.3137477970
 H         -1.8952839116       -0.7107729999        0.2089160818
 H         -1.6838930445       -1.0123093284       -1.5164825716
 H         -0.8903034470        1.3862239652       -1.7582890563
 H         -1.3984509157        1.6643459180       -0.0903529307
 H         -3.2074726932        0.7204839416       -2.3497845915
 H         -3.0898171699        2.3786104954       -1.7586762248
 H         -3.7666909785        1.5213407889        0.5346077984
 H         -4.1253501584       -0.0345454875       -0.2167005527
 H         -5.3990788020        2.6239230994       -0.9795420315
 H         -6.1298583707        1.4082973243        0.0698678949
 H         -5.9574606410       -0.2439412490       -1.8413856458
 H         -5.4760103319        1.0924459668       -2.8882543482
 H         -8.0930951492        0.9507875315       -1.3321508191
 H         -7.8983112249        0.5265806011       -3.0321495594
 H         -7.4704745233        3.2980264818       -1.8234721063
 H         -8.7902345946        2.7951627223       -2.8746160996
 H         -7.1452610614        2.8776278579       -3.5065597772
 H          2.2693727654        1.6103711232       -0.7261663395
 H          5.2862956828        1.1794254866       -1.0022315668
 H          4.2607815596        2.4365630870       -1.8578230498
  47
        -56.03008664
 C          1.7861772617       -3.7301845067        2.6670375721
 C          2.7028315424       -3.1872866929        1.8690216288
 C          2.6855553933       -1.8339039633        1.3835620021
 C          1.7861474817       -0.8236366621        1.6119231671
 C          2.0988805328        0.3837499294        0.9623211341
 C          1.2294813366        1.6002855607        1.0419077378
 C          0.3444604783        1.7467885057       -0.2035950432
 C         -0.6569170010        0.6028332070       -0.3376479738
 C         -1.5312735913        0.7633138900       -1.5784863038
 C         -2.4685633734       -0.4213086310       -1.8162893601
 C         -3.4911711941       -0.6720251657       -0.7050844982
 C         -4.4058774956        0.5103421180       -0.3802885435
 C         -5.2792557642        0.9384238907       -1.5575020105
 C         -6.2322669377        2.0843043899       -1.2126814681
 C         -7.3545100475        1.6738807528       -0.2662107683
 C          3.2577599968        0.2993548773        0.2176753617
 C          3.8778162169        1.3295033184       -0.5679990927
 C          4.9624315705        1.1659035739       -1.3214794215
 S          3.9586765453       -1.2887511209        0.3346338390
 H          1.8634864245       -4.7523136793        2.9927424004
 H          0.9333994348       -3.1769365810        3.0201862970
 H          3.5448905852       -3.7803661182        1.5360120650
 H          0.9181128030       -0.9411173141        2.2358361690
 H          1.8483631624        2.4939778142        1.1497414167
 H          0.5930989594        1.5243585744        1.9259842450
 H          0.9776044688        1.7787120732       -1.0932273851
 H         -0.1962003220        2.6946376250       -0.1429319963
 H         -1.2840577764        0.5751615272        0.5553172615
 H         -0.1175961888       -0.3452972636       -0.3983111691
 H         -0.8821060433        0.8642278858       -2.4525456552
 H         -2.1107646298        1.6848814219       -1.4989602195
 H         -1.8652118391       -1.3259327544       -1.9296124410
 H         -2.9949523715       -0.2647265791       -2.7599050069
 H         -2.9636489913       -0.9640152060        0.2053891319
 H         -4.1117438972       -1.5211321701       -1.0037003988
 H         -3.8088031938        1.3609264983       -0.0465025889
 H         -5.0465145398        0.2150643160        0.4530931743
 H         -5.8595382092        0.0810603097       -1.9072111493
 H         -4.6378780834        1.2624654802       -2.3791728500
 H         -6.6763115642        2.4577085580       -2.1388448527
 H         -5.6632472105        2.9039292672       -0.7672105190
 H         -7.9166107923        0.8406180310       -0.6827052324
 H         -8.0391563975        2.5047296138       -0.1102497556
 H         -6.9622991174        1.3742427071        0.7021070476
 H          3.3975798716        2.2979738898       -0.5181560230
 H          5.4575500211        0.2116218301       -1.3947714524
 H          5.3855937469        1.9770577622       -1.8869855566
  47
        -56.02996473
 C          1.3741387510       -4.1951369380        1.5793294191
 C          2.4584898751       -3.4239380701        1.5439062890
 C          2.5269365262       -2.1110489551        0.9615149551
 C          1.5586757723       -1.3690709156        0.3341266370
 C          1.9995349787       -0.1139709118       -0.1213202780
 C          1.0907538681        0.8660229735       -0.7955335077
 C          0.5618439727        1.8958759863        0.2103700814
 C         -0.2902813665        2.9869707866       -0.4381971689
 C         -1.5713853241        2.4923400597       -1.1120687619
 C         -2.5458653359        1.8207178233       -0.1471098263
 C         -3.8713287143        1.4797857763       -0.8247272233
 C         -4.8360451056        0.7895849661        0.1369257153
 C         -6.2250371546        0.5512642332       -0.4573746245
 C         -6.2581225773       -0.3811427589       -1.6696544579
 C         -5.7740722890       -1.7922805252       -1.3573538099
 C          3.3285112361        0.1180219384        0.1692411510
 C          4.1067888128        1.2858654367       -0.1356884165
 C          5.3728068767        1.4752204208        0.2279545394
 S          4.0290853737       -1.2394857224        1.0019185789
 H          1.3964962784       -5.1702539545        2.0325906298
 H          0.4337978571       -3.8822055577        1.1599936658
 H          3.3844798023       -3.7785734512        1.9779872145
 H          0.5503642780       -1.7172574308        0.1966105996
 H          0.2555497214        0.3201142658       -1.2356741056
 H          1.6185864203        1.3836680030       -1.5995361308
 H          1.4134695660        2.3699742986        0.7049745610
 H         -0.0134287359        1.3811504025        0.9815107952
 H          0.3153278672        3.5080259167       -1.1846217508
 H         -0.5593005509        3.7144448829        0.3318179484
 H         -1.3234304421        1.8006974488       -1.9194217940
 H         -2.0681527100        3.3532613258       -1.5672990058
 H         -2.7322905002        2.4877007063        0.6982686084
 H         -2.1057136487        0.9024841616        0.2461448031
 H         -3.6735810154        0.8317016917       -1.6804948444
 H         -4.3321405564        2.3963000109       -1.2015447193
 H         -4.9502924533        1.4159056610        1.0257988790
 H         -4.4068052013       -0.1589649207        0.4640591528
 H         -6.6505968520        1.5148489441       -0.7493924726
 H         -6.8665979347        0.1315026148        0.3218484092
 H         -5.6565659939        0.0404878357       -2.4765735794
 H         -7.2894493207       -0.4337397414       -2.0276212398
 H         -4.7163815909       -1.7969647918       -1.1074094127
 H         -5.9195874535       -2.4403857981       -2.2188818572
 H         -6.3284955588       -2.2078227466       -0.5183990001
 H          3.5892545572        2.0490371870       -0.7019309366
 H          5.9107028191        0.7355580678        0.7978104653
 H          5.9071799263        2.3722441980       -0.0300532559
  47
        -56.02863805
 C          2.4352464527       -4.1167125250       -0.8192210274
 C          2.7529552510       -2.8608636646       -1.1203090771
 C          2.3015077952       -1.7004539895       -0.4034750147
 C          2.6023814921       -0.3923980884       -0.6750168662
 C          2.0239407598        0.5391014053        0.2132797389
 C          2.1503183189        2.0187391267        0.0190451615
 C          1.7423107613        2.4539975000       -1.3951239613
 C          0.3578471513        1.9504125025       -1.8047599860
 C         -0.7519472866        2.4246175832       -0.8694468818
 C         -2.1537215346        2.1157612669       -1.3968047119
 C         -2.4430039424        0.6301850136       -1.6239242007
 C         -2.2383849564       -0.2656436298       -0.4011314667
 C         -3.0549255347        0.1226121974        0.8328091038
 C         -4.5697062532        0.1493164528        0.6238443466
 C         -5.1488508261       -1.2111479950        0.2542648806
 C          1.2762968456       -0.0756072281        1.1911022094
 C          0.5351974970        0.4607337047        2.3095957220
 C          0.8620083331        1.5300644060        3.0284086380
 S          1.2609053210       -1.8077355184        0.9831649832
 H          2.8048406761       -4.9477729327       -1.3931057789
 H          1.7929999611       -4.3477800015        0.0147237559
 H          3.4001042026       -2.6456577048       -1.9616978685
 H          3.2320519872       -0.1058829811       -1.4993211605
 H          3.1873509280        2.3202754576        0.1953739860
 H          1.5229966885        2.5370412449        0.7420974283
 H          2.4746810875        2.0886026768       -2.1180537516
 H          1.7583367690        3.5459445071       -1.4346421384
 H          0.3731331016        0.8597753604       -1.8313159387
 H          0.1460526356        2.3041564065       -2.8172555093
 H         -0.6665601127        3.5074160750       -0.7404318017
 H         -0.6268090092        1.9656428365        0.1114247560
 H         -2.2958505178        2.6370386954       -2.3477642186
 H         -2.8843225289        2.5213285777       -0.6937543981
 H         -1.8010179965        0.2598030875       -2.4262825145
 H         -3.4734863541        0.5347806775       -1.9731598647
 H         -1.1824055332       -0.2581591444       -0.1260523901
 H         -2.4835774081       -1.2912318201       -0.6849540395
 H         -2.7332370071        1.1059012912        1.1825112689
 H         -2.8284412035       -0.5947325164        1.6266091020
 H         -4.8243992789        0.8750180113       -0.1502650905
 H         -5.0347404658        0.4895353515        1.5530184139
 H         -4.7893655156       -1.5379316183       -0.7179669050
 H         -6.2349253407       -1.1609721145        0.2136847765
 H         -4.8678316702       -1.9579647108        0.9940587321
 H         -0.3387819815       -0.1165178343        2.5865635322
 H          1.7555101911        2.1010946547        2.8458936849
 H          0.2464836020        1.8540924000        3.8498623777
