  19
        -35.16533601
 C          0.4066137150        2.8421187710       -0.5204057672
 C          1.3564661104        2.1217717296        0.0611262952
 C          1.4226315114        0.6617664106        0.0981659321
 N          2.6562536275        0.1711474880        0.0212380311
 C          2.8396224442       -1.1314368494       -0.0324607335
 C          1.7938344028       -2.0439468816       -0.0080100452
 C          0.5085533438       -1.5550444986        0.1322224589
 C          0.2932521711       -0.1776995952        0.1982980715
 C         -1.0318296873        0.3747169950        0.4441560919
 C         -2.1827561209       -0.1629188905        0.0725343446
 F         -2.3608760785       -1.2700455207       -0.6406272278
 F         -3.3700388136        0.3743994504        0.3455001348
 H          0.4520885313        3.9178240198       -0.5363676889
 H         -0.4303424418        2.3941288304       -1.0297612266
 H          2.2231669504        2.6056290863        0.4906649247
 H          3.8700992646       -1.4555446456       -0.0952338711
 H          1.9810606641       -3.1042251756       -0.0686023307
 H         -0.3243445951       -2.2367370317        0.2125008851
 H         -1.0877906311        1.3083146329        0.9841821445
  19
        -35.16434622
 C          0.9931261582        2.7144725433       -0.8033201163
 C          0.4422239387        1.7604563825       -0.0638495697
 C          0.9821426425        0.4070562197        0.0121096777
 N          2.2504036203        0.2537630376       -0.3601018439
 C          2.8363106648       -0.9161718195       -0.2304482634
 C          2.2079804660       -2.0235149879        0.3247462803
 C          0.8822961551       -1.8933454343        0.6929926207
 C          0.2281454795       -0.6760223416        0.5092066604
 C         -1.1935426029       -0.5947393174        0.8387608008
 C         -2.1255366609       -0.0232364496        0.0945452124
 F         -1.9578726509        0.5742211335       -1.0775597789
 F         -3.4164482656        0.0029752714        0.4197317011
 H          0.5937390436        3.7132292756       -0.8327315030
 H          1.8608837067        2.5059590573       -1.4044778962
 H         -0.4346191410        1.9611705415        0.5363985202
 H          3.8626051432       -0.9644904222       -0.5706320717
 H          2.7348159745       -2.9554544691        0.4546384850
 H          0.3397416319       -2.7335655862        1.1031892684
 H         -1.5286212541       -1.0962034548        1.7350237095
  19
        -35.16254107
 C          0.0154794807        2.5315529881        0.1450618026
 C          0.6793379798        1.6842652069       -0.6266786728
 C          1.0964241058        0.3372640315       -0.2283996743
 N          2.3273429530        0.0109076981       -0.6080852022
 C          2.8578974887       -1.1275987830       -0.2122759681
 C          2.1983332139       -2.0194828789        0.6211142610
 C          0.8970445073       -1.7213572855        0.9818177028
 C          0.3032576022       -0.5431285749        0.5322865437
 C         -1.1082526259       -0.3159058561        0.8447724745
 C         -2.0224712364        0.0920302399       -0.0179158233
 F         -1.8292730171        0.4006660453       -1.2929017705
 F         -3.3097103473        0.2460485913        0.2834184639
 H         -0.2156307196        3.5292655935       -0.1857637292
 H         -0.3123230542        2.2700150371        1.1382643565
 H          1.0463197165        1.9915414248       -1.5955242907
 H          3.8593222304       -1.3251433409       -0.5711903831
 H          2.6772580822       -2.9248084870        0.9587266681
 H          0.3254293395       -2.4067088857        1.5917920732
 H         -1.4518377833       -0.5776451136        1.8346500527
