  26
        -41.23616493
 C         -4.5816623426       -0.4807996362        0.2017908481
 C         -3.6357591815        0.3470803885       -0.2221448802
 C         -2.1993402588        0.1094969305       -0.1010645634
 C         -1.6929334859       -1.1877860958       -0.1422161923
 C         -0.3421552365       -1.4667517274       -0.0398258539
 C          0.1295391742       -2.8888933818       -0.1101149005
 C          0.5548308724       -0.3967571484        0.1078873876
 C          1.9815234130       -0.6608560681        0.2307155530
 C          2.9820970011        0.1809771496        0.0225891182
 F          2.9236033200        1.4499475096       -0.3679796683
 F          4.2636513784       -0.1617564918        0.1714118968
 C          0.0498989766        0.9029482470        0.1502149751
 C         -1.3017222219        1.1769152472        0.0455488682
 C         -1.7817730421        2.5954819718        0.1151506420
 H         -5.6268650231       -0.2533850065        0.0791251347
 H         -4.3533319953       -1.4060197683        0.7039687751
 H         -3.9214136509        1.2813312674       -0.6866758873
 H         -2.3839426643       -2.0063637760       -0.2809507464
 H         -0.7083221755       -3.5547444812       -0.3008089188
 H          0.5939717846       -3.1899176265        0.8290665511
 H          0.8589643134       -3.0179548345       -0.9083766676
 H          2.2820156698       -1.6570831286        0.5170714109
 H          0.7311077314        1.7286403942        0.2824630074
 H         -0.9541659908        3.2672593792        0.3276471705
 H         -2.5336389467        2.7108074980        0.8943221775
 H         -2.2288990037        2.8959414715       -0.8325268881
