  25
        -42.10605822
 C         -3.3574243193       -2.9866672249        0.3425769581
 C         -3.3718876799       -1.6759217020        0.1247886269
 C         -2.1683731237       -0.8879735867        0.0645503604
 N         -0.9421253647       -1.3053920515        0.1947227057
 C         -0.1527749594       -0.2057055381        0.0503732648
 C          1.3105903435       -0.3788383125        0.1544754999
 O          1.8429798037       -1.1789907302        0.8760424712
 O          1.9751447713        0.4353888130       -0.6795212937
 C          3.4000157187        0.3168436833       -0.6844962321
 C          4.0375993307        1.0995052884        0.4550069390
 C         -0.9683018320        0.8986006640       -0.1623767979
 C         -0.8054455694        2.3196102134       -0.3213730294
 C          0.3356619959        3.0000550348       -0.2940347785
 O         -2.2453543082        0.4419931780       -0.1486050278
 H         -4.2650687466       -3.5621855865        0.3861032564
 H         -2.4244524803       -3.5037994356        0.4828340301
 H         -4.2883062833       -1.1211160709       -0.0185330612
 H          3.7104065240        0.7075590990       -1.6557086344
 H          3.6644056768       -0.7425121199       -0.6044897494
 H          3.7738830347        2.1529260985        0.3919125049
 H          5.1181116151        1.0034615904        0.3988400785
 H          3.6993218281        0.7048674240        1.4099601593
 H         -1.7477504623        2.8352456701       -0.4579411354
 H          1.2845401285        2.5150925417       -0.1654442966
 H          0.3407804058        4.0696897607       -0.4105793869
