  23
        -38.34863320
 C          4.2577175069        1.9644565060       -0.1056202720
 C          3.7691038699        0.7367400679        0.0250008472
 C          2.3622150083        0.3542933669        0.0254184327
 C          2.0436795375       -1.0030423216        0.1138935138
 C          0.7396740921       -1.4994152507        0.1065886684
 C          0.4972969070       -2.9353620489        0.1687970410
 C         -0.5575041320       -3.5694193705       -0.3279437704
 C         -0.2673516048       -0.5387892611        0.0407909655
 N         -1.6430047393       -0.5921043725        0.0660827576
 C         -2.1427718366        0.6792251363        0.0117724629
 S         -3.7169022413        1.0882913091        0.0255832004
 O         -1.1172027132        1.5491834944       -0.0624184607
 C          0.0432170536        0.8273550044       -0.0340158535
 C          1.3330669537        1.3006132752       -0.0526126998
 H          5.3185857676        2.1448231717       -0.0947326636
 H          3.6349031775        2.8329988734       -0.2301382174
 H          4.4581046132       -0.0904836307        0.1402444367
 H          2.8525881214       -1.7169604543        0.1752947953
 H          1.2879531824       -3.5062303686        0.6385655604
 H         -1.3432426056       -3.0638584150       -0.8635681713
 H         -0.6526869390       -4.6387016659       -0.2522925452
 H         -2.2217235870       -1.4050481884        0.1901421178
 H          1.5266665815        2.3569025755       -0.1119542855
