24
 energy: -41.274379942445 gnorm: 0.000092170156 xtb: 6.4.1 (23d549d)
C         3.94619540860000   -2.03405011180000   -0.62190571510000
C         3.21874900300000   -1.65063258580000    0.41045998670000
C         1.96392809630000   -0.87895337650000    0.28448760700000
C         1.99473260760000    0.50930899020000    0.30291189130000
C         0.84705954290000    1.30301260100000    0.17458565640000
C         0.97407057270000    2.75885362180000    0.16192438170000
C         0.22484330560000    3.59196156800000   -0.54816811730000
C        -0.36202744610000    0.62521687600000    0.07052070130000
C        -0.40826463840000   -0.77888390680000    0.05864997270000
C         0.74355463070000   -1.53882700140000    0.15317918980000
C        -1.81189786590000   -1.18966315690000   -0.04536823510000
O        -2.28977853590000   -2.29193326150000   -0.10883591940000
C        -2.59972843190000    0.14898465790000   -0.04954896340000
O        -3.79049838390000    0.31671715230000   -0.08976761180000
N        -1.65213505820000    1.13417376560000    0.00241997350000
H         4.85496281620000   -2.59834922390000   -0.50097084880000
H         3.65778695310000   -1.79759102230000   -1.63298951690000
H         3.51743145270000   -1.89531003520000    1.42265075420000
H         2.95069428000000    1.00432735650000    0.40125621280000
H         1.78531025170000    3.14979438060000    0.76319282530000
H        -0.54821434080000    3.25083350020000   -1.21663820240000
H         0.38992544280000    4.65527212980000   -0.52014009730000
H         0.69038516010000   -2.61610243790000    0.13411122580000
H        -1.86905105070000    2.11627230670000    0.07703256740000
