  35
        -60.33291403
 C         -4.6380837097        0.9149772738        1.2542683898
 C         -3.7626720665        1.2814380863        0.0576818674
 C         -3.2348655889        2.7096516872        0.1944268205
 O         -2.5586256446        0.4657656959        0.0469037597
 C         -2.6358880151       -0.8536353012       -0.0525013394
 N         -1.3714624267       -1.4341151009       -0.0617477691
 C         -1.2084793716       -2.8109471233       -0.1329340885
 C          0.1026164064       -3.1316684994       -0.1403748142
 C         -0.1116692576       -0.8569670660       -0.0236752252
 C          0.8374887584       -1.9046580981       -0.0734755851
 C          2.1945915758       -1.6193651847       -0.0566050916
 C          2.6123467992       -0.2935151408        0.0075624767
 C          4.0434131996       -0.0349067071        0.0165245381
 C          4.6797232009        1.1264351250        0.0481520277
 F          4.1619566112        2.3497916894        0.0815536103
 F          6.0097079836        1.2253672899        0.0496798315
 C          1.6523044532        0.7311374834        0.0589868185
 C          0.2987410151        0.4663142659        0.0447976596
 O         -3.6342427744       -1.5215658250       -0.1277669258
 C         -4.5197939304        1.1096632689       -1.2575637889
 H         -4.0643903161        0.9912814046        2.1756263812
 H         -5.0113960341       -0.1004751287        1.1550623132
 H         -5.4823720907        1.5962594089        1.3080509546
 H         -2.6644954925        2.8113640354        1.1142235106
 H         -4.0644700435        3.4097062686        0.2147288887
 H         -2.5886249009        2.9528254997       -0.6451554592
 H         -2.0810801920       -3.4330986292       -0.1716453239
 H          0.5214938953       -4.1167677595       -0.1880635154
 H          2.9167122739       -2.4211170041       -0.0957378447
 H          4.6863791652       -0.9031875989       -0.0098028178
 H          1.9723148939        1.7581494652        0.1115980250
 H         -0.4140839594        1.2717999339        0.0857703619
 H         -5.3631552295        1.7936216534       -1.2839195794
 H         -4.8891424830        0.0922056996       -1.3522629455
 H         -3.8638075715        1.3263700294       -2.0982296369
