  22
        -36.98989828
 C         -4.2171577964       -0.2509763259       -0.0653750231
 C         -3.3168353645        0.7148480139        0.0716974293
 C         -1.8680591162        0.5541725495        0.0897153424
 C         -1.2206203328       -0.6777490564       -0.0090624876
 C          0.1683200773       -0.7420836642        0.0171578956
 C          0.8483793222       -2.0423117323       -0.0133480488
 C          0.4576686226       -3.0646592055       -0.7620882259
 C          0.8719450352        0.4688253076        0.1337449006
 C          2.3552402339        0.5916961713        0.1257493533
 O          2.9430401042        1.4226682007        0.7603617609
 O          3.0231938912       -0.2598480327       -0.6791901254
 C          0.1286944133        1.6460731251        0.2488461826
 N         -1.1817528006        1.6930190337        0.2242162778
 H         -5.2711161228       -0.0330482179       -0.0683034924
 H         -3.9523424796       -1.2888354657       -0.1789439414
 H         -3.6295415834        1.7439196721        0.1817491555
 H         -1.7885989457       -1.5918824259       -0.0699675470
 H          1.7095189166       -2.1405130017        0.6364488350
 H         -0.3820405278       -2.9913383828       -1.4338182771
 H          0.9746992152       -4.0082870546       -0.7436251142
 H          2.4365549630       -0.8738711058       -1.1432743317
 H          0.6451111391        2.5905103331        0.3573050731
