  31
        -48.09137049
 C         -2.4182114823        3.5692101124        0.0658673058
 C         -2.9932724013        2.3739503109        0.0390799354
 C         -2.2463967838        1.1374905059        0.0192092043
 N         -2.8548959029       -0.0780948988       -0.0098497652
 C         -1.8855097729       -0.9596728028       -0.0181704790
 C         -2.2074126594       -2.3645907239       -0.0593528061
 C         -1.4023148052       -3.4203442171       -0.0817030660
 N         -0.6734015435       -0.2773456520        0.0051790665
 C          0.6769396346       -0.6754407062        0.0165118274
 O          1.0308516151       -1.8225966198        0.0631608902
 O          1.4330668025        0.3958325244       -0.0285571893
 C          2.8828357578        0.2936667913       -0.0129502055
 C          3.3676806195       -0.4827545114       -1.2358198435
 C          3.3451121320        1.7483100661       -0.0764336070
 C          3.3469062339       -0.3663187476        1.2840428261
 N         -0.9366194693        1.0474835443        0.0270462606
 H         -2.9967597443        4.4767037690        0.0805419220
 H         -1.3457017196        3.6615827785        0.0736373328
 H         -4.0660340043        2.2463298212        0.0304628026
 H         -3.2819775372       -2.4968114161       -0.0756367051
 H         -0.3313950911       -3.3395370984       -0.0636221204
 H         -1.8179681107       -4.4133917823       -0.1166622088
 H          2.9762682284       -0.0305830059       -2.1445601546
 H          3.0389914457       -1.5173478709       -1.1875504132
 H          4.4531278403       -0.4614356373       -1.2721438651
 H          2.9740500683        2.2160094714       -0.9840284554
 H          4.4298530547        1.7953037116       -0.0677583788
 H          2.9561536225        2.2980098657        0.7759903000
 H          3.0169229752       -1.4008003114        1.3265450190
 H          2.9416403743        0.1683461402        2.1403863498
 H          4.4316636381       -0.3423036532        1.3358099933
