  47
        -61.77563243
 C         -1.1397762133        3.0615924640       -2.3583950222
 C         -1.3766296125        4.1139914484       -1.2812805724
 C         -2.4378384507        3.7063555341       -0.2565295916
 C         -2.1636546361        2.3883853046        0.4714560991
 C         -0.8993085409        2.4406644659        1.3247298401
 C         -0.5166805766        1.1094464795        1.9947384773
 N         -0.0414089543        0.0921601140        1.0746685637
 C         -0.9248304465       -0.8938030033        0.6235904977
 C         -2.2949654612       -0.8337348079        0.8942456593
 C         -3.1863789667       -1.8016925134        0.4635558841
 C         -2.7660070693       -2.8885378110       -0.2809390042
 C         -3.7103585206       -3.9454102824       -0.7628735225
 C         -1.4098514113       -2.9661912268       -0.5632532471
 C         -0.5147466394       -2.0095103437       -0.1182978231
 S          1.1734955426       -2.3375163305       -0.5213061868
 C          1.9241625447       -0.7895473255       -0.1223403599
 C          3.2252964076       -0.6441908912       -0.5696946689
 C          3.9837921038        0.4760907227       -0.2621809498
 C          5.3866633460        0.6156931781       -0.7656543060
 C          3.3806944322        1.4417100580        0.5228603210
 C          2.0716982879        1.3081446944        0.9555449934
 C          1.2839926283        0.1960640235        0.6397638639
 H         -0.4854964453        3.4571883392       -3.1320876781
 H         -2.0806575821        2.7707068284       -2.8208494826
 H         -0.6686683154        2.1732560774       -1.9449932867
 H         -1.7099960370        5.0395502516       -1.7573617858
 H         -0.4337316785        4.3351775585       -0.7777525156
 H         -3.3975644424        3.6144199520       -0.7711415563
 H         -2.5356803722        4.5070942565        0.4813694235
 H         -2.0818782448        1.5849920058       -0.2605859011
 H         -3.0253745743        2.1747647908        1.1091247737
 H         -1.0281428961        3.1888834048        2.1111993162
 H         -0.0747985822        2.7601570077        0.6893123644
 H         -1.3607149104        0.7143655196        2.5594002233
 H          0.2766937047        1.2925384246        2.7268439678
 H         -2.7106180192       -0.0172915610        1.4560585242
 H         -4.2308550109       -1.6909376980        0.7165081342
 H         -4.7333793740       -3.7059116889       -0.4839898733
 H         -3.4492801880       -4.9116787110       -0.3324958194
 H         -3.6558098646       -4.0390192811       -1.8466756639
 H         -1.0211616380       -3.7977397714       -1.1329116097
 H          3.6517091817       -1.4441233361       -1.1572933985
 H          5.9398024296       -0.3104678287       -0.6211071159
 H          5.9044993790        1.4201789905       -0.2492253571
 H          5.3826760052        0.8385985824       -1.8329170808
 H          3.9316366311        2.3257362877        0.8097513632
 H          1.6882574924        2.1056433007        1.5664116068
