  39
        -67.42061104
 F          6.5092208830        0.0990245691       -0.1376256769
 C          5.1947095937        0.1759112123       -0.3322421938
 F          4.9564897878        1.0169291955       -1.3306945912
 C          4.3166256365       -0.5040910391        0.3910880289
 C          2.8676053344       -0.5102753553        0.2838665180
 C          2.1461104309       -1.3043899444        1.1789598880
 C          0.7688391750       -1.3556670373        1.1369108621
 C          0.0748621719       -0.6103950472        0.1874799241
 N         -1.3220359807       -0.6714138806        0.1315710984
 C         -2.2189410759        0.3768182653        0.0213232119
 C         -1.8488454877        1.7813919918        0.1146659230
 C         -2.5727287297        2.7105822905       -0.6313128851
 C         -2.2628560643        4.0546861396       -0.5595036435
 C         -1.2343437577        4.4885648072        0.2615743677
 C         -0.5276988847        3.5730700368        1.0237945802
 C         -0.8314145065        2.2261951410        0.9567522162
 N         -3.4499080537       -0.0264741171       -0.1235880499
 C         -2.0736234331       -1.8246521774        0.0472635212
 C         -3.4110202457       -1.3932080158       -0.1156041761
 C         -4.4371453070       -2.3227000909       -0.2439080514
 C         -4.0968680874       -3.6583705851       -0.2185721137
 C         -2.7710333874       -4.0739099638       -0.0809065052
 C         -1.7367763879       -3.1683027354        0.0496821478
 C          0.7828056910        0.1797801417       -0.7155680355
 C          2.1594445881        0.2329619521       -0.6643448835
 H          4.7457083922       -1.1320306886        1.1587272233
 H          2.6754561251       -1.8834748553        1.9211941046
 H          0.2220758834       -1.9579223177        1.8468694180
 H         -3.3739087607        2.3554548838       -1.2603066601
 H         -2.8243590489        4.7677456630       -1.1447370892
 H         -0.9896680090        5.5390026042        0.3151089016
 H          0.2621305747        3.9099383517        1.6790038641
 H         -0.2904523417        1.5249082000        1.5752286891
 H         -5.4571124252       -1.9954967683       -0.3640630776
 H         -4.8696085288       -4.4065698948       -0.3151639585
 H         -2.5491161772       -5.1307666536       -0.0787979919
 H         -0.7118457487       -3.4960138549        0.1409800501
 H          0.2448997503        0.7515109142       -1.4566408599
 H          2.6820260540        0.8520554964       -1.3741544611
