  24
        -46.36680282
 C         -4.3925751289       -0.0936989360       -0.9474740428
 C         -3.7088241005       -0.5781487505        0.0775727830
 C         -2.2458421737       -0.5689396610        0.1882792594
 C         -1.6222378488       -1.7544644941        0.5781269271
 C         -0.2493404939       -1.8739380659        0.6122026648
 C          0.5285579910       -0.7841359973        0.2481016709
 O          1.9207245475       -1.0045720199        0.2948446176
 C          2.7604583032       -0.0457611890       -0.0207330148
 F          2.6810382049        1.0474120868        0.7617070862
 F          4.0031616500       -0.5046022435        0.0968480057
 F          2.6391941734        0.4108763567       -1.2819833932
 C         -0.0573733610        0.4097212542       -0.1179480841
 C         -1.4480015787        0.5373451735       -0.1316318364
 C         -1.9834648279        1.8713008492       -0.4259667581
 C         -2.9379326390        2.4705348603        0.2687133758
 H         -5.4645508815       -0.1747644337       -1.0005961888
 H         -3.9061026233        0.4006584906       -1.7711326207
 H         -4.2249129153       -1.1036394521        0.8718249179
 H         -2.2333902521       -2.6053254211        0.8404617246
 H          0.2335494228       -2.7909032577        0.9058488416
 H          0.5349180222        1.2730740989       -0.3789552625
 H         -1.4780062620        2.4036549762       -1.2222067964
 H         -3.4324260742        1.9828743852        1.0916176762
 H         -3.2577487429        3.4725601042        0.0406416813
