  24
        -45.66804617
 C         -6.1283432497       -0.9644279012        0.0359417007
 C         -4.8303271057       -1.2598450553        0.0560632019
 C         -3.7600399369       -0.3010068841        0.0148469352
 C         -3.8032019657        1.0721494631       -0.0488443585
 C         -2.5412278727        1.6710354357       -0.0721886696
 C         -1.5040926762        0.7643854592       -0.0269868593
 C         -0.1039568590        1.0321379948       -0.0351560524
 C          0.5212582475        2.2596788274       -0.0760653007
 C          1.9146574056        2.1678075007       -0.0730385251
 C          2.3787721677        0.8731797379       -0.0302520798
 C          3.7541084877        0.4746182002       -0.0183326650
 C          4.2111226258       -0.7729903761        0.0204297749
 F          3.4812579778       -1.8812216489        0.0556945945
 F          5.5040680860       -1.0863236725        0.0291187163
 S          1.0597431178       -0.2575112836        0.0078311604
 S         -2.1147170570       -0.8597614908        0.0459858112
 H         -6.8766628122       -1.7360746764        0.0697845855
 H         -6.4855854845        0.0493487823       -0.0147092753
 H         -4.5149534307       -2.2938955916        0.1072109615
 H         -4.7207728916        1.6310459517       -0.0779159746
 H         -2.3889286962        2.7339197587       -0.1215444315
 H         -0.0130820940        3.1912637365       -0.1063471418
 H          2.5697138838        3.0202852462       -0.1012840973
 H          4.4916849152        1.2625504971       -0.0438196175
