  26
        -36.72516672
 C          3.6919152004        1.4478723978       -0.1617284898
 C          3.0596522440        0.3269817950        0.1635972222
 C          1.6179048344        0.1248453806        0.0989319584
 C          0.7218508602        1.1910433850        0.1961546403
 C         -0.6500983649        1.0068325991        0.1227444683
 C         -1.5322590812        2.1639655145        0.1890771040
 C         -2.7123190567        2.2983449281       -0.4061009748
 C         -1.0912896718       -0.3333994943        0.0135620877
 N         -2.4169804827       -0.6681842560        0.0005054350
 N         -2.8020049989       -2.0141635044        0.1797683759
 N         -0.2433314602       -1.3548911532       -0.0785348527
 C          1.0644186805       -1.1534383921       -0.0578842167
 C          1.9057391018       -2.3830814664       -0.2141751128
 H          4.7624802267        1.5321760756       -0.0851151321
 H          3.1742719528        2.3174398089       -0.5304999607
 H          3.6376807079       -0.5250345574        0.4963779917
 H          1.1049577871        2.1923302980        0.3330071701
 H         -1.1298952693        2.9979448148        0.7533132483
 H         -3.1324583396        1.5371839553       -1.0406087886
 H         -3.2800592099        3.2089590166       -0.3135526945
 H         -3.0533226195       -0.0136102303        0.4383097019
 H         -2.0625502213       -2.4992047295        0.6916303621
 H         -2.8537204926       -2.4560816783       -0.7380801067
 H          1.2596249363       -3.2349758493       -0.4067090836
 H          2.4768907421       -2.5741765863        0.6938384065
 H          2.6044112258       -2.2674479183       -1.0405541084
  26
        -36.72507834
 C          3.6989436345        1.3935386319       -0.3890351852
 C          3.0597502070        0.3462500850        0.1177260030
 C          1.6179946470        0.1378142462        0.0751229618
 C          0.7243194529        1.2056066919       -0.0280357614
 C         -0.6486129791        1.0153137059       -0.0508990245
 C         -1.5308558043        2.1731696537       -0.1050150887
 C         -2.7458081852        2.2735849282        0.4228152688
 C         -1.0891025930       -0.3293741308       -0.0276997070
 N         -2.4118933959       -0.6670881688       -0.1045955112
 N         -2.7805701469       -2.0071594322       -0.3484491309
 N         -0.2436020696       -1.3521538872        0.0734263760
 C          1.0618450870       -1.1469606986        0.1468573838
 C          1.8980491300       -2.3838446341        0.2707075972
 H          4.7691934176        1.4866814119       -0.3190620838
 H          3.1880632540        2.1896676771       -0.9039635591
 H          3.6325192592       -0.4371650422        0.5957987818
 H          1.1082121257        2.2155980384       -0.0507418866
 H         -1.0988303558        3.0378767709       -0.5963026744
 H         -3.2013850463        1.4784758687        0.9872745732
 H         -3.3101378524        3.1877515432        0.3458121841
 H         -3.0240184536       -0.0000104204       -0.5576236922
 H         -2.8724293460       -2.4813150393        0.5498688864
 H         -2.0154920045       -2.4713471195       -0.8417645737
 H          1.2497266312       -3.2554208850        0.2518407976
 H          2.4520214645       -2.3781949099        1.2086370420
 H          2.6115511548       -2.4496889848       -0.5488215134
  26
        -36.72485371
 C          3.4710011726        1.6094049996       -0.3333060854
 C          2.9328859239        0.4663067582        0.0742715269
 C          1.5091918264        0.1559010601        0.0638874907
 C          0.5407524346        1.1612061281        0.1176207561
 C         -0.8136786872        0.8722767192        0.1084112607
 C         -1.8249150489        1.9168626639        0.2043616953
 C         -1.6842802667        3.1548460806       -0.2529609550
 C         -1.1565970793       -0.4992132390        0.0343475728
 N         -2.4486495808       -0.9203684097       -0.0756502835
 N         -2.7784597564       -2.2820086645        0.0762918588
 N         -0.2404723177       -1.4645624491        0.0115679989
 C          1.0495283024       -1.1678749319        0.0281647190
 C          1.9761197486       -2.3447979426       -0.0075493795
 H          4.5340039973        1.7755948638       -0.2951375718
 H          2.8803696813        2.4167272602       -0.7324063436
 H          3.5825679382       -0.3196961335        0.4354035679
 H          0.8538720156        2.1896542240        0.2148534335
 H         -2.7515177369        1.6418594787        0.6954506518
 H         -0.7977541260        3.4747189672       -0.7735281226
 H         -2.4603138668        3.8914656390       -0.1360964952
 H         -3.1908225636       -0.2942007067        0.2005290598
 H         -2.0639954846       -2.7206537765        0.6594319859
 H         -2.7205603525       -2.7330559677       -0.8374520342
 H          1.3907564510       -3.2560752776       -0.0927411173
 H          2.5705756239       -2.3925685651        0.9042094232
 H          2.6540923170       -2.2740000254       -0.8560780971
  26
        -36.72298538
 C          3.8712140415        0.4061540830       -0.5178832412
 C          2.8166795620        0.9056785913        0.1134669074
 C          1.4518674443        0.3897674949        0.0947841098
 C          0.4036085643        1.3120108121        0.1814833300
 C         -0.9246670432        0.9255320059        0.1426907491
 C         -2.0146304536        1.8851718372        0.2555891356
 C         -1.9643758669        3.1450395237       -0.1589395722
 C         -1.1563547242       -0.4657451203        0.0172452591
 N         -2.4078005702       -0.9811648334       -0.1495582177
 N         -2.6337530501       -2.3687009420       -0.0500143234
 N         -0.1674866032       -1.3535581308        0.0116432661
 C          1.0994985351       -0.9651968138        0.0484749909
 C          2.0905899598       -2.0863112574        0.0926835542
 H          4.8348186639        0.8834225297       -0.4538437603
 H          3.8172806916       -0.4684877937       -1.1407795907
 H          2.9329293466        1.8253460277        0.6767029152
 H          0.6410612951        2.3606511163        0.2937291316
 H         -2.9234659017        1.5221975447        0.7222026838
 H         -1.0983304485        3.5498145136       -0.6544104339
 H         -2.7971615490        3.8148556578       -0.0311424680
 H         -3.2038357222       -0.4241836754        0.1252193093
 H         -1.9075952701       -2.7681634767        0.5468646653
 H         -2.5069676763       -2.7842410511       -0.9735378326
 H          1.6129733661       -2.9643817470        0.5207901081
 H          2.9622118044       -1.8129622308        0.6818394871
 H          2.4162140921       -2.3426970285       -0.9147248409
  26
        -36.72077404
 C          3.6237352882        1.5803023564        0.0898768530
 C          3.0722017805        0.3844097754        0.2559275285
 C          1.6542868403        0.0811736388        0.1093975467
 C          0.6715037322        1.0506593915        0.2906042665
 C         -0.6803364664        0.7603805662        0.1509149764
 C         -1.6438109585        1.8559833041        0.1801325762
 C         -2.6877654187        1.9632713331       -0.6348208999
 C         -1.0061752983       -0.5961458980       -0.0679202305
 N         -2.2861517736       -1.0963882688       -0.0767516432
 N         -3.3194796249       -0.6120301148        0.7451674031
 N         -0.0694922019       -1.5167674020       -0.2864825450
 C          1.2118122539       -1.2076181378       -0.2383003897
 C          2.1607075950       -2.3201669895       -0.5622677836
 H          4.6812032078        1.7347218854        0.2200331650
 H          3.0514110590        2.4465141940       -0.1967986608
 H          3.7046010022       -0.4557185760        0.5108836359
 H          0.9603651282        2.0646985554        0.5279504533
 H         -1.4213689025        2.6527800780        0.8805690091
 H         -2.8886393125        1.2270786438       -1.3967386075
 H         -3.3465141837        2.8146372332       -0.6002362224
 H         -2.2951772797       -2.1086213981       -0.1444375169
 H         -3.8012451683        0.1561200232        0.2750216384
 H         -2.9458866159       -0.2432276073        1.6201910567
 H          1.5924101112       -3.1827116963       -0.8977915890
 H          2.7366162345       -2.6008829511        0.3190172757
 H          2.8551533856       -2.0169044890       -1.3433470137
  26
        -36.72017621
 C          3.4464171377        1.7264751311        0.0378049284
 C          2.9538105107        0.5397169390       -0.2958936937
 C          1.5718208968        0.1161496002       -0.1114845514
 C          0.5250713003        1.0341359160       -0.0370276853
 C         -0.7905292544        0.6315232374        0.1374169458
 C         -1.8521666396        1.6243217818        0.3064697184
 C         -1.9315366361        2.7604085051       -0.3728624156
 C         -1.0188545410       -0.7610691187        0.1792839722
 N         -2.2585507891       -1.3419243469        0.2886432824
 N         -3.4415256428       -0.7968352311       -0.2536754406
 N         -0.0214156917       -1.6408918371        0.1352929690
 C          1.2313862448       -1.2405471322        0.0157072718
 C          2.2599179617       -2.3295440744        0.0282167650
 H          4.4801835667        1.9738763977       -0.1329749714
 H          2.8490675695        2.4903113394        0.5064969608
 H          3.6130759085       -0.1980644131       -0.7336500213
 H          0.7371876280        2.0910917581       -0.0975691878
 H         -2.5886515878        1.4004984328        1.0685914946
 H         -1.2239836811        3.0101972307       -1.1461128996
 H         -2.7146534537        3.4765225563       -0.1912378590
 H         -2.2131251107       -2.3480125517        0.1647687735
 H         -3.2318391707       -0.1557887871       -1.0170142480
 H         -3.9487607751       -0.2826804714        0.4637415341
 H          1.7672752684       -3.2774422837        0.2239508369
 H          3.0062105916       -2.1440175822        0.7983111151
 H          2.7667842052       -2.3888313662       -0.9343191972
  26
        -36.71845275
 C          4.0457830655        0.5010238592       -0.2803523341
 C          2.9547670292        0.8111354557        0.4072147093
 C          1.6005899200        0.3076372845        0.1950111592
 C          0.5379117149        1.1832553423        0.4156994365
 C         -0.7844065331        0.8094030960        0.2171900026
 C         -1.8254322514        1.8307370815        0.2771957622
 C         -2.8423476078        1.9196137260       -0.5730449986
 C         -1.0001606973       -0.5517365492       -0.0903577019
 N         -2.2391769332       -1.1388521861       -0.1922513283
 N         -3.3392739518       -0.7831479661        0.6094337040
 N          0.0096708573       -1.3925532819       -0.2968836196
 C          1.2674566246       -0.9979652450       -0.2032945237
 C          2.2785116143       -2.0683734377       -0.4719170802
 H          4.9951600135        0.9540953446       -0.0480847258
 H          4.0383987992       -0.1815280405       -1.1106815425
 H          3.0285581999        1.5544027674        1.1939917071
 H          0.7503815620        2.2062517723        0.6986643028
 H         -1.6879895905        2.5918588230        1.0366684088
 H         -2.9599150279        1.2243033826       -1.3888731726
 H         -3.5623295474        2.7182539259       -0.5114701255
 H         -2.1689063635       -2.1434085993       -0.3163205689
 H         -3.8549492148       -0.0208701322        0.1669798550
 H         -3.0314273917       -0.4492556805        1.5231501490
 H          1.8035247855       -3.0377969569       -0.3463741775
 H          3.1286642773       -1.9797945561        0.2000659060
 H          2.6358183509       -1.9998653717       -1.4984983857
