  21
        -29.72158718
 C          1.3511950524        2.7414743366       -0.0243451716
 C          0.8193566882        1.3441368431        0.0528812200
 C         -0.5319254719        1.0854932385        0.2553843371
 C         -0.9644475213       -0.2330079932        0.3242916058
 C         -2.4292736941       -0.5520793331        0.4860577346
 O         -3.0872891163       -0.6398883412       -0.7616433563
 C         -0.0214311595       -1.2403410523        0.1769767113
 C          1.3106830362       -0.8939124375       -0.0242065971
 C          2.3775049945       -1.9311630336       -0.1863212059
 N          1.7072630269        0.3696358742       -0.0817136558
 H          0.5548157414        3.4722554081        0.0858471897
 H          1.8502112118        2.8918175209       -0.9794558442
 H          2.0914914523        2.8948376217        0.7582265184
 H         -1.2333551453        1.9004166915        0.3661822887
 H         -2.9104509310        0.2101519213        1.1176913237
 H         -2.5609439888       -1.5307125847        0.9528942684
 H         -2.9351321490        0.1780954481       -1.2483626929
 H         -0.3211533876       -2.2762925487        0.2166830321
 H          1.9600456589       -2.9329205398       -0.1410979783
 H          3.1236639424       -1.8150507425        0.5972484792
 H          2.8817313713       -1.7923627560       -1.1403978472
