  33
        -39.14915993
 C          4.9611457340        0.3305651911       -1.2831654020
 C          4.4373094321        0.6897791696        0.1023834186
 C          3.0467706601        1.3269214929        0.0762952538
 C          1.9383075856        0.4392863427       -0.4908899778
 C          1.6966584731       -0.8260567149        0.3277078181
 C          0.4935031421       -1.6235958619       -0.1919235253
 C         -0.7871753770       -0.8548872292       -0.0780734279
 C         -1.3937881583       -0.1943786368       -1.1821223798
 C         -2.5347010517        0.4690684448       -0.8736879884
 C         -3.4226406301        1.2626646966       -1.7645852784
 S         -2.9037585306        0.2971493230        0.8152953872
 C         -1.4892634352       -0.6823187110        1.0761089568
 C         -1.1922910629       -1.1911969268        2.4431163933
 H          5.9899392781       -0.0171613713       -1.2191592210
 H          4.9332582224        1.1995394057       -1.9373312664
 H          4.3665832150       -0.4594697215       -1.7341795840
 H          5.1258679354        1.4005949274        0.5662328608
 H          4.4233360468       -0.2031813716        0.7294937265
 H          3.0950551521        2.2418060588       -0.5199890548
 H          2.7773511634        1.6141093301        1.0961274888
 H          2.1733533942        0.1662862926       -1.5211655924
 H          1.0145285153        1.0226370910       -0.5110619436
 H          1.5236797848       -0.5529849632        1.3705838670
 H          2.5785374932       -1.4679356518        0.2890479229
 H          0.4152060743       -2.5550769497        0.3750047518
 H          0.6601042029       -1.8812703703       -1.2398666881
 H         -0.9822335607       -0.2227964438       -2.1763102613
 H         -3.0351047072        1.2483998489       -2.7806875273
 H         -3.4840704407        2.2970456377       -1.4262977517
 H         -4.4325253626        0.8527696513       -1.7672630179
 H         -2.1153999775       -1.3756249536        2.9888879546
 H         -0.6077135831       -0.4640276276        3.0093111908
 H         -0.6225680454       -2.1168275314        2.3882736512
