  21
        -34.38625611
 C          3.0836843137       -2.0703519957       -0.2279631928
 C          2.7154750360       -0.8704449219        0.2023293240
 C          1.3685596290       -0.3187962937        0.0954370149
 C          0.2395611025       -1.1214488155        0.1082547391
 C         -1.0577542571       -0.5985124588        0.0429548830
 C         -2.1952874595       -1.5047197484        0.0638646942
 C         -3.4823445986       -1.1948352569       -0.0452019599
 C         -1.1088242900        0.7956053868       -0.0216631771
 F         -2.2848238178        1.4438345461       -0.0620607331
 N         -0.0697709663        1.5915704934       -0.0512689796
 C          1.1549873135        1.0764611230       -0.0017154688
 N          2.1720118750        1.9812745363       -0.0142809197
 H          4.0916932932       -2.4276359891       -0.1069250063
 H          2.4000078338       -2.7343996848       -0.7290636685
 H          3.4459299550       -0.2291555761        0.6799046793
 H          0.3593042794       -2.1915963451        0.1957290821
 H         -1.9134997978       -2.5455077886        0.1770734328
 H         -3.8380296383       -0.1879522723       -0.1650277755
 H         -4.2354297522       -1.9642863744       -0.0177373229
 H          1.8997896818        2.9274904564       -0.2226275757
 H          3.0863537836        1.6876784876       -0.3081500718
