  24
        -42.13089007
 C          3.5499363399       -2.7414784075        0.0283201483
 C          3.4025788617       -1.4230320228       -0.0092217948
 C          2.1450165685       -0.6825706601       -0.0079438929
 C          0.8982213668       -1.3065194913       -0.0107200396
 C         -0.2763842230       -0.5620903220       -0.0081550488
 C         -1.5384819611       -1.2872672217       -0.0115085733
 C         -2.7728350371       -0.8075633342        0.0000696776
 F         -3.1619874969        0.4634593651        0.0177997142
 F         -3.8557261260       -1.5846873243       -0.0042610870
 C         -0.2117513822        0.8336992097       -0.0031349640
 C          1.0230272507        1.4676610057       -0.0019201716
 O          1.1995624442        2.8157280871        0.0016180419
 C          0.0631199012        3.6470465035        0.0042205971
 C          2.1912474337        0.7067937308       -0.0050384767
 H          4.5266194773       -3.1939910907        0.0248600376
 H          2.7180503270       -3.4234957485        0.0653579676
 H          4.2865501871       -0.7983996784       -0.0413427027
 H          0.8355600603       -2.3827383901       -0.0168682392
 H         -1.4712958996       -2.3656863511       -0.0240387435
 H         -1.1192706113        1.4106856253       -0.0013388027
 H          0.4457348703        4.6663704691        0.0058471537
 H         -0.5488977710        3.4890950351        0.8977540614
 H         -0.5504920904        3.4926041608       -0.8888328862
 H          3.1360971196        1.2279271890       -0.0039696580
  24
        -42.13043088
 C          2.6962535105       -2.6035668646       -0.0903202192
 C          2.7628589846       -1.2860751234        0.0556428015
 C          1.6428974591       -0.3498723756        0.0371003642
 C          0.3184172320       -0.7727556476        0.0386615781
 C         -0.7228815802        0.1533919323        0.0183133487
 C         -2.1282390340       -0.2268896239        0.0193796002
 C         -2.6557930028       -1.4412504403       -0.0007414461
 F         -2.0270040138       -2.6108361850       -0.0269826600
 F         -3.9699635748       -1.6635754562        0.0009292305
 C         -0.4227908239        1.5121344351       -0.0018553822
 C          0.8990672071        1.9509591731       -0.0006988387
 O          1.0707278886        3.3013359437       -0.0202905588
 C          2.3808284658        3.8143814470       -0.0222755689
 C          1.9263510185        1.0181111821        0.0218962401
 H          3.5835444955       -3.2127169048       -0.0663356088
 H          1.7693410651       -3.1282895834       -0.2440211687
 H          3.7334080483       -0.8238206117        0.1912707389
 H          0.1021276409       -1.8256666298        0.0662056528
 H         -2.8440357090        0.5821238889        0.0344657539
 H         -1.2058219689        2.2535002245       -0.0174343912
 H          2.2722651286        4.8975442172       -0.0432305712
 H          2.9385227311        3.4905348980       -0.9069921820
 H          2.9280544330        3.5241989184        0.8804968751
 H          2.9588133560        1.3319024735        0.0237754974
  24
        -42.13038100
 C          2.6674461041       -2.8259967299        0.0249859402
 C          2.8258798602       -1.5086850515       -0.0067416986
 C          1.7693916402       -0.5016002158       -0.0048896918
 C          0.4144193707       -0.8337618177       -0.0027899081
 C         -0.5583155695        0.1579917827        0.0000348891
 C         -1.9856237477       -0.1285979731        0.0022580843
 C         -2.5943806293       -1.3048918912        0.0001224188
 F         -2.0479795878       -2.5148429006       -0.0044735453
 F         -3.9212769325       -1.4345803370        0.0025786596
 C         -0.1762944532        1.5038508997        0.0007284641
 C          1.1672793837        1.8475082949       -0.0026648132
 O          1.6454852294        3.1216987813       -0.0033195600
 C          0.7273416171        4.1875533643       -0.0008344287
 C          2.1311339740        0.8406041923       -0.0060232292
 H          3.5153918207       -3.4892362408        0.0216764733
 H          1.7015098125       -3.2996016985        0.0563338092
 H          3.8290110358       -1.1015348023       -0.0345366867
 H          0.1261049999       -1.8695456165       -0.0049957941
 H         -2.6497378046        0.7240203715        0.0060407444
 H         -0.9436594954        2.2616601565        0.0032787954
 H          1.3296329872        5.0945643746       -0.0030466543
 H          0.0981910182        4.1748176621        0.8951493444
 H          0.0925761039        4.1741998749       -0.8928264860
 H          3.1698008720        1.1329606871       -0.0085455199
  24
        -42.13036704
 C          3.8011788816       -1.5593715075       -0.0839038553
 C          2.4868993298       -1.6556109940        0.0743227846
 C          1.5178800205       -0.5644619138        0.0429890088
 C          0.1635195037       -0.8822055902        0.0357835197
 C         -0.8059207824        0.1191937018       -0.0014186110
 C         -2.2361860478       -0.1506515779       -0.0155905976
 C         -2.8562050017       -1.3206302090       -0.0008563713
 F         -2.3199678723       -2.5350204463        0.0314189676
 F         -4.1835549570       -1.4402009045       -0.0172466803
 C         -0.3989736273        1.4491150792       -0.0243464215
 C          0.9539968861        1.7822662748       -0.0096235256
 O          1.2289937503        3.1156662376       -0.0285301976
 C          2.5742145760        3.5275670010       -0.0161172686
 C          1.9084298071        0.7759660491        0.0238037052
 H          4.4325213332       -2.4304394693       -0.0487463574
 H          4.3049097197       -0.6243752537       -0.2607704141
 H          2.0503742320       -2.6340381333        0.2311777007
 H         -0.1260810339       -1.9197876949        0.0542021025
 H         -2.8865013841        0.7116901371       -0.0423787049
 H         -1.1203921482        2.2503276713       -0.0504579197
 H          2.5484155859        4.6158653868       -0.0370848329
 H          3.1147778402        3.1626902826       -0.8955246079
 H          3.0882525384        3.1964447540        0.8920718544
 H          2.9578128074        1.0168016083        0.0448327253
  24
        -42.12999766
 C          4.3600954166       -1.2371729606       -0.1191279316
 C          3.1057140268       -1.6336037922        0.0567540608
 C          1.9113594755       -0.7950007293        0.0409784717
 C          0.6643957236       -1.4090132421        0.0475463866
 C         -0.5130179523       -0.6601027760        0.0251263500
 C         -1.7776112343       -1.3805692946        0.0279266614
 C         -3.0071778205       -0.8899781627       -0.0052585716
 F         -3.3841955396        0.3809432369       -0.0489614642
 F         -4.0955289201       -1.6599954228        0.0003751203
 C         -0.4275112943        0.7266923015        0.0039636414
 C          0.8170352070        1.3567409589        0.0054927593
 O          0.7785632257        2.7166451838       -0.0098010289
 C          1.9916473986        3.4287365446       -0.0112356308
 C          1.9796179937        0.5994799390        0.0233689618
 H          5.1760506252       -1.9387945555       -0.0946454679
 H          4.6310559826       -0.2112831731       -0.3011057521
 H          2.9093262358       -2.6865936150        0.2171941668
 H          0.6058887092       -2.4875055312        0.0644118714
 H         -1.7164298106       -2.4589269805        0.0592569650
 H         -1.3031568678        1.3523414863       -0.0099365769
 H          1.7139689760        4.4814059192       -0.0273297951
 H          2.5914925631        3.2006516001       -0.8984295797
 H          2.5797143599        3.2248399196        0.8896258336
 H          2.9445819321        1.0773705959        0.0338887681
  24
        -42.12993788
 C          3.5593216704       -2.5022233353        0.1170100840
 C          3.3260315717       -1.2071414793       -0.0554248144
 C          2.0246947474       -0.5462186109       -0.0391401419
 C          0.8260100829       -1.2484234766       -0.0413996781
 C         -0.3991872965       -0.5810740714       -0.0222433306
 C         -1.6104849485       -1.3883993981       -0.0277500947
 C         -2.8718297323       -0.9860006707        0.0002864307
 F         -3.3387800569        0.2549139498        0.0402573324
 F         -3.9026662897       -1.8315960747       -0.0077307080
 C         -0.4144532344        0.8088745845       -0.0004982918
 C          0.7804537615        1.5273180720       -0.0026170063
 O          0.6466571193        2.8808319610        0.0163727260
 C          1.8073347003        3.6756213160        0.0166563665
 C          1.9919589826        0.8504238305       -0.0256700627
 H          4.5601139360       -2.8978498136        0.0929736507
 H          2.7753270804       -3.2178966085        0.2953388803
 H          4.1666373649       -0.5417550319       -0.2119143577
 H          0.8351092721       -2.3262007982       -0.0678314280
 H         -1.4739213158       -2.4598934053       -0.0572314945
 H         -1.3333036077        1.3690446535        0.0148033403
 H          1.4573405295        4.7064201214        0.0359192887
 H          2.4058437916        3.5150224080       -0.8860710459
 H          2.4240912240        3.4876190902        0.9016202489
 H          2.9270283628        1.3889474163       -0.0278486218
