  24
        -31.81564363
 C          3.7280825837        1.1840553080        0.0001887202
 C          2.4270266011        0.4379340817        0.0000238621
 C          2.4134231393       -0.9698821293        0.0000557357
 C          1.2363111801       -1.6633815398       -0.0000465502
 C         -0.0000000081       -0.9872405124       -0.0001183923
 C         -1.2363112996       -1.6633813675       -0.0000179412
 C         -2.4134231728       -0.9698817949        0.0001180181
 C         -2.4270264581        0.4379344448        0.0001011707
 C         -3.7280827143        1.1840550403        0.0001129259
 C         -1.2331775116        1.1133450708       -0.0001253766
 C          0.0000000445        0.4320007502       -0.0001872963
 C          1.2331777403        1.1133448544       -0.0001666519
 H          4.5716730607        0.4983830075        0.0015737665
 H          3.7993981472        1.8235263409        0.8793340365
 H          3.8007325885        1.8215463467       -0.8802929220
 H          3.3544717402       -1.5020168880        0.0001901058
 H          1.2375788164       -2.7444981385       -0.0000130078
 H         -1.2375793377       -2.7444979645        0.0000293785
 H         -3.3544718092       -1.5020165158        0.0002857298
 H         -4.5716690643        0.4983888582        0.0042773466
 H         -3.8018624139        1.8192720838       -0.8819310013
 H         -3.7982736265        1.8257921123        0.8776820070
 H         -1.2259085137        2.1950515630       -0.0001731397
 H          1.2259089289        2.1950513351       -0.0002261270
