  24
        -37.07208767
 C          4.2461994045        0.8064328801       -0.0552967405
 C          3.3498127557       -0.1654268821       -0.1855909252
 C          1.9012132351       -0.0630323010       -0.0818409120
 C          1.1345507679       -1.2220546469       -0.2098814156
 C         -0.2519375161       -1.2542547369       -0.1216106921
 C         -0.9129135878       -2.5503144352       -0.2517735804
 C         -2.0111698763       -2.9345227415        0.3833743377
 C         -0.9341069030       -0.0394146075        0.0653922605
 S         -2.6981582538        0.0033340547        0.0767268519
 C         -3.0700560194        1.7158479499       -0.4121668644
 C         -0.1996444678        1.1305005967        0.2042567925
 C          1.1777198785        1.1109386586        0.1368881350
 F          1.8002315900        2.3011074491        0.2846524850
 H          5.2982123408        0.5978906117       -0.1541853190
 H          3.9857634819        1.8281682334        0.1518143572
 H          3.6965024144       -1.1715418308       -0.3905425436
 H          1.6515995760       -2.1568676336       -0.3757526543
 H         -0.4027048178       -3.2484758739       -0.9044400384
 H         -2.5234078665       -2.3017301694        1.0866248623
 H         -2.4256561587       -3.9172298742        0.2361385960
 H         -4.1191122251        1.7124782549       -0.6919191108
 H         -2.4592205494        1.9956222853       -1.2647655819
 H         -2.9201556611        2.3952875409        0.4218841034
 H         -0.6780449845        2.0811339814        0.3740820670
