  24
        -36.57181916
 C         -3.7131264996        1.7077637558        0.0013977233
 C         -2.8849926031        0.6678902453       -0.0023927997
 C         -1.4333871189        0.7201403822       -0.0004170680
 C         -0.6966423129        1.8890362044        0.0003873738
 C          0.6966185326        1.8890445138        0.0003761457
 C          1.4333792214        0.7201570274       -0.0004377065
 C          2.8849843992        0.6679238072       -0.0023988634
 C          3.7130985202        1.7077893536        0.0013947881
 C          0.7117493706       -0.5085187745       -0.0001291170
 N          1.3906194928       -1.6740685578        0.0002377035
 C          0.7035862358       -2.7837252019        0.0008407801
 C         -0.7035492150       -2.7837337439        0.0008270672
 N         -1.3905964739       -1.6740857009        0.0002216473
 C         -0.7117412866       -0.5085272402       -0.0001298291
 H         -4.7803917920        1.5681152915       -0.0009320383
 H         -3.3737237238        2.7299606052        0.0072635174
 H         -3.2826240266       -0.3375567437       -0.0076080896
 H         -1.2084664326        2.8393414131        0.0007299649
 H          1.2084303466        2.8393592217        0.0007369098
 H          3.2826271833       -0.3375316942       -0.0074463508
 H          3.3736835630        2.7299649394        0.0072790741
 H          4.7803674457        1.5681633646       -0.0009916010
 H          1.2695189965       -3.7061061094        0.0013712843
 H         -1.2694702691       -3.7061215779        0.0013351728
