  25
        -44.38880752
 C          2.3517335614       -3.2503473087        0.2000259260
 C          1.0980856401       -2.8379509748        0.0491979245
 C          0.6001136290       -1.4698142516       -0.0050956869
 C         -0.7734491746       -1.2601626672        0.0257762218
 C         -1.3560616799        0.0052275129        0.0047285800
 C         -2.8240201333        0.1732036661        0.0343257548
 O         -3.3833985106        1.2075400860        0.3255874491
 O         -3.5727919017       -0.8914575724       -0.2984168834
 C         -0.5184406867        1.1484234795       -0.0172354358
 N         -1.0374402541        2.3897548014        0.0203434771
 C          0.8844775640        0.9652597347       -0.1073859607
 C          1.7599896757        2.1362707427       -0.2419617167
 C          2.9129213856        2.3048365933        0.3879008733
 C          1.3981184234       -0.3194149756       -0.0984374591
 F          2.7321681007       -0.4580191334       -0.2229637205
 H          2.5795710118       -4.3023804694        0.2319899280
 H          3.1884438427       -2.5837594346        0.2974895782
 H          0.3150487239       -3.5840364435       -0.0275933276
 H         -1.3953878875       -2.1418771563        0.1177388724
 H         -3.0421314213       -1.6451062890       -0.5872197681
 H         -2.0324383467        2.4732638342        0.1832425599
 H         -0.4340839781        3.1840981855        0.1255972353
 H          1.4056382062        2.8970771625       -0.9283778830
 H          3.2963163059        1.5811080549        1.0861449363
 H          3.5172557484        3.1810352126        0.2269306515
