20
 energy: -43.341946334477 gnorm: 0.000079354424 xtb: 6.5.0 (unknown)
C            1.57250177040000       -3.06800810160000       -0.04187448330000
C            1.21776634800000       -1.89834202240000       -0.55492101300000
C           -0.03209454010000       -1.20093884180000       -0.26027352210000
C           -1.20104071500000       -1.92459992880000       -0.02569919660000
C           -2.41555156010000       -1.30011976410000        0.17132492760000
C           -2.48160846690000        0.08170681290000        0.11956326250000
F           -3.65989457830000        0.70218515470000        0.29019878080000
C           -1.33340621640000        0.82231915320000       -0.11132908870000
F           -1.40304575220000        2.16508723540000       -0.15126489960000
C           -0.09521834350000        0.20286377700000       -0.28439856190000
C            1.06494684520000        1.07087332680000       -0.48162630460000
C            2.25076827840000        0.91921014980000        0.08475350560000
F            2.61679907910000       -0.02890287710000        0.93523042310000
F            3.26934071950000        1.74752295450000       -0.11241092750000
H            2.50112429470000       -3.53971338820000       -0.31061167890000
H            0.96776276520000       -3.58227500130000        0.68544552710000
H            1.87784810210000       -1.39474981660000       -1.24955825450000
H           -1.15490569270000       -3.00177959580000       -0.02245330710000
H           -3.31728108620000       -1.86287240850000        0.35095523690000
H            0.92299971570000        1.95669649410000       -1.08368165300000
