  22
        -29.45446478
 C         -3.2740745384       -0.0348478469        0.0023545046
 O         -2.1854673921       -0.9231946279       -0.0016496288
 C         -0.9218874234       -0.4047398835       -0.0011135498
 C          0.1122404978       -1.3418526468       -0.0026318246
 C          1.4323035891       -0.9363662381       -0.0017496371
 C          2.5478980670       -1.9378855608        0.0018120791
 C          1.7210408264        0.4258854809        0.0008863130
 C          0.7086410899        1.3677058785        0.0023123302
 C          1.0146259473        2.8361766307       -0.0015391512
 C         -0.6188282724        0.9479539268        0.0011074391
 H         -4.1659292824       -0.6599327582        0.0029131106
 H         -3.2797029331        0.6005043615       -0.8897584792
 H         -3.2759836464        0.5967518113        0.8971439901
 H         -0.1497879739       -2.3884407203       -0.0042129022
 H          2.1612641005       -2.9514251525       -0.0614789403
 H          3.1340188661       -1.8458897903        0.9156660008
 H          3.2163850251       -1.7647290997       -0.8403366107
 H          2.7527126268        0.7475270508        0.0019250259
 H          2.0842249643        3.0106994340        0.0801560138
 H          0.5157057856        3.3326242618        0.8296145475
 H          0.6592740853        3.2940721093       -0.9244009045
 H         -1.3972872477        1.6953293861        0.0018129088
  22
        -29.45432324
 C         -2.9249241147       -1.4740748320       -0.0016159681
 O         -2.3655552746       -0.1850911321        0.0009338972
 C         -1.0049038069       -0.0641177384        0.0006578235
 C         -0.1136415128       -1.1307377967        0.0005349231
 C          1.2542122269       -0.8960940552        0.0001182432
 C          2.2243920147       -2.0401300582       -0.0003189584
 C          1.7246253286        0.4093276698       -0.0002166388
 C          0.8475327754        1.4845174364        0.0000200207
 C          1.3513653233        2.8967919812       -0.0002387782
 C         -0.5157128879        1.2388647706        0.0005183187
 H         -4.0041547056       -1.3276953118       -0.0029302801
 H         -2.6393295226       -2.0399749203        0.8915818955
 H         -2.6367694359       -2.0374495449       -0.8955741475
 H         -0.4683898489       -2.1498659204        0.0008037788
 H          1.7058712138       -2.9955467810        0.0033294618
 H          2.8678307818       -1.9908524473        0.8772553484
 H          2.8622723709       -1.9946967164       -0.8821847803
 H          2.7906317459        0.5867448141       -0.0006635176
 H          2.4379909843        2.9228341025       -0.0032526847
 H          0.9924840864        3.4267743911        0.8809154994
 H          0.9874703589        3.4283063483       -0.8783871634
 H         -1.2240670697        2.0526708290        0.0007291006
