17
 energy: -32.832481424093 gnorm: 0.000048881540 xtb: 6.5.0 (unknown)
C            1.57283831520000       -2.58302951790000        0.50570690460000
C            0.81464460520000       -1.71266732250000       -0.14664146390000
C            0.98799712120000       -0.26970716810000       -0.11033372460000
C            2.18300427670000        0.35754549220000        0.09525930870000
S            2.07973078250000        2.06387573560000       -0.04066006350000
C            0.40648714600000        1.96236011950000       -0.39036577090000
C           -0.05569716660000        0.67723498170000       -0.38362778140000
C           -1.45827945760000        0.36775547440000       -0.61549133850000
C           -2.16460559650000       -0.55461632580000        0.01753697190000
F           -1.75590879730000       -1.35719080780000        0.99168507080000
F           -3.45203007270000       -0.79113105350000       -0.23134046200000
H            1.40683678270000       -3.64292318620000        0.42641820330000
H            2.37176080830000       -2.26887643180000        1.15554002040000
H            0.00191705760000       -2.06381564310000       -0.76909661010000
H            3.13435568070000       -0.09548696660000        0.28847341980000
H           -0.15822646370000        2.85835461800000       -0.55611090110000
H           -1.98978630550000        0.97385439800000       -1.33397214660000
