  21
        -34.51632376
 C         -3.5149632597        1.4576972980       -0.5778726466
 C         -2.5303947237        1.4742777725        0.3083324496
 C         -1.2980434267        0.6865113627        0.2070074585
 C         -0.1143113818        1.3398711332        0.4591279233
 C          1.1010340718        0.6764292551        0.2450193773
 N          2.3368422662        1.1475375794        0.4182889613
 S          3.3830023320       -0.0008233155        0.0011162718
 N          2.3363967126       -1.1484670841       -0.4173159291
 C          1.1008151848       -0.6762815869       -0.2456383220
 C         -0.1148564104       -1.3388827563       -0.4607323360
 C         -1.2982246046       -0.6847815991       -0.2092306125
 C         -2.5310207451       -1.4721874686       -0.3102807395
 C         -3.5118758674       -1.4594055454        0.5800320656
 H         -4.3706660055        2.1037250077       -0.4819189950
 H         -3.5014883358        0.8029525902       -1.4327389716
 H         -2.5590106064        2.1768289783        1.1322251585
 H         -0.1048872039        2.3684870492        0.7852311687
 H         -0.1059617619       -2.3675551470       -0.7866886947
 H         -2.5627949364       -2.1708613950       -1.1373259506
 H         -3.4944562382       -0.8083058904        1.4375962270
 H         -4.3680897721       -2.1048696846        0.4850631906
