  53
        -62.36625468
 C          3.7643710780       -0.4856281880        2.7688083288
 C          2.5224495899       -0.1241022773        2.4556393691
 C          1.8255841100       -0.5259232628        1.2644482703
 S          2.5398133167       -1.6680101713        0.1684518995
 C          1.1555885369       -1.5965017168       -0.8776981156
 C          1.1175321605       -2.3687648249       -2.0895277497
 C          2.0364022131       -3.2605568552       -2.4521840804
 C          0.1971217608       -0.7315707827       -0.3900128240
 C         -1.1168575297       -0.5292521482       -1.0845972987
 C         -2.0645812014       -1.7195951406       -0.8714323117
 C         -2.5527520804       -1.8480767618        0.5725994746
 C         -3.6640827500       -0.8620354753        0.9403246354
 C         -5.0278716549       -1.2651580743        0.3829582623
 C         -6.1107660487       -0.2643363526        0.7676552495
 C          0.5793561817       -0.1212636054        0.8314486735
 C         -0.2230092127        0.9080720582        1.5703615487
 C          0.3069983661        2.3271714519        1.3194774133
 C          0.1543660574        2.7545908839       -0.1375097644
 C          0.7532564970        4.1363382391       -0.3875504032
 C          0.5199773796        4.6443715771       -1.8106783449
 C          1.2572344135        3.8289814962       -2.8666784922
 H          4.2354174501       -0.1584979354        3.6787967679
 H          4.3467252082       -1.1191195467        2.1204040326
 H          1.9677820736        0.5186657090        3.1261489830
 H          0.2674873858       -2.1854918544       -2.7331683638
 H          2.8916225319       -3.4716953071       -1.8318239543
 H          1.9603044812       -3.8061567854       -3.3760207535
 H         -0.9417259507       -0.4071881108       -2.1564739019
 H         -1.5909769794        0.3844737014       -0.7304951848
 H         -1.5391760193       -2.6361336047       -1.1475123685
 H         -2.9206105721       -1.6142917359       -1.5403429584
 H         -1.7009559507       -1.7063222800        1.2412891439
 H         -2.9254493410       -2.8625025443        0.7327190804
 H         -3.4155540749        0.1364001737        0.5743997242
 H         -3.7377822445       -0.8021062307        2.0290077600
 H         -5.2943114499       -2.2529084128        0.7661322135
 H         -4.9773732302       -1.3360826982       -0.7052769815
 H         -6.1938319245       -0.1891046115        1.8499185753
 H         -7.0755572418       -0.5709754017        0.3702386720
 H         -5.8764751300        0.7227983148        0.3741573751
 H         -0.1837108874        0.6982126084        2.6419447344
 H         -1.2685426053        0.8583644203        1.2695962013
 H          1.3633346757        2.3702901420        1.5939734176
 H         -0.2348246505        3.0259758579        1.9619438120
 H         -0.9060576490        2.7729266892       -0.4025554630
 H          0.6489322280        2.0195936635       -0.7739359450
 H          1.8269772995        4.1049569796       -0.1879669364
 H          0.3079061844        4.8458086080        0.3151754421
 H          0.8562247817        5.6824678828       -1.8688609672
 H         -0.5512002767        4.6329464351       -2.0261541024
 H          2.3217495424        3.7944529004       -2.6451097140
 H          1.1260442315        4.2773586070       -3.8490534379
 H          0.8816676061        2.8098610937       -2.9073825847
