  22
        -29.86983002
 C          3.5228499368       -0.1971640173       -0.5109776245
 C          2.4263633930       -0.5637896831        0.1380990085
 C          1.1521600923        0.1543518290        0.0984395489
 C          1.1496628552        1.5444418293        0.0463973903
 C         -0.0321538623        2.2594318406        0.0680171879
 C         -1.2335172421        1.5806836367        0.1279307934
 C         -1.2797613734        0.1897508797        0.1370958859
 C         -2.5993913551       -0.4433776489        0.1564571532
 C         -2.9663872248       -1.5309513506       -0.5107855941
 C         -0.0742654992       -0.5394015743        0.1413198895
 N         -0.0966649612       -1.9176494538        0.1341547348
 H          4.4442130162       -0.7475701176       -0.4238629214
 H          3.5372123258        0.6573597945       -1.1660248443
 H          2.4655920434       -1.4491767173        0.7646377193
 H          2.0946964920        2.0660133924        0.0255608281
 H         -0.0166245878        3.3386673503        0.0482953815
 H         -2.1637631846        2.1307913138        0.1474460385
 H         -3.3407955356        0.0866901473        0.7444823321
 H         -2.2971256173       -2.0563833560       -1.1707702413
 H         -3.9747515162       -1.9069561600       -0.4553939276
 H         -0.9409539060       -2.3364218647        0.4937916556
 H          0.7543793561       -2.3772810912        0.4145974569
