  17
        -32.83534853
 C          2.7068022680       -2.6402958673        0.1590372273
 C          1.5782765115       -2.0281261080       -0.1772546619
 C          1.3466577464       -0.5967728367       -0.0776027145
 C          2.3394609197        0.3399150075       -0.0639162074
 S          1.7463619871        1.9458084816        0.0259410506
 C          0.1315159356        1.3819859456        0.0521207578
 C          0.0464382488        0.0175605185       -0.0092206093
 C         -1.1840056935       -0.7430462281        0.0259762121
 C         -2.4166055064       -0.2569204643        0.0098116465
 F         -2.7793971828        1.0202214986       -0.0503555076
 F         -3.5073690137       -1.0195551081        0.0513099776
 H          2.8218341863       -3.7046237165        0.0499456885
 H          3.5498700837       -2.1073399499        0.5637551283
 H          0.7542312695       -2.6134850410       -0.5623416598
 H          3.3962279728        0.1766214177       -0.1276893933
 H         -0.6670188214        2.0923325256        0.1194624209
 H         -1.1066433553       -1.8176070110        0.0795667314
