  26
        -32.77424744
 C          3.5086652685       -1.1683740070        0.5481073277
 C          2.8693184506       -0.1809032714       -0.0650571136
 C          1.4186178052       -0.0088392196       -0.0885159159
 C          0.5754932974       -1.1152508189       -0.0501818104
 C         -0.8068054581       -1.0124084154       -0.0663405165
 C         -1.6217806142       -2.2716103094       -0.0632666376
 C         -1.3793853973        0.2634063129       -0.1283453804
 C         -2.8196095853        0.5244999209       -0.1379522360
 C         -3.7389258321       -0.0898137473        0.5935218022
 C         -0.5334130006        1.3709280372       -0.2060083569
 C          0.8442694156        1.2678499031       -0.1790669749
 C          1.6910263090        2.5049195984       -0.2316602125
 H          4.5824965441       -1.2461101938        0.5254426460
 H          2.9899958313       -1.9266884954        1.1104721869
 H          3.4430968648        0.5743241843       -0.5859603902
 H          1.0187335991       -2.1006084834       -0.0289610070
 H         -1.0679293808       -3.0761268943       -0.5435289084
 H         -2.5645971976       -2.1296792329       -0.5860752405
 H         -1.8407684019       -2.5842590525        0.9579765679
 H         -3.1208900052        1.3460007862       -0.7785283521
 H         -3.4954039721       -0.8715384301        1.2911688443
 H         -4.7772258893        0.1930251198        0.5413723965
 H         -0.9825730482        2.3532436883       -0.2710581387
 H          1.0668520555        3.3949486923       -0.2069949302
 H          2.2819478824        2.5287237690       -1.1476731825
 H          2.3772383465        2.5389143569        0.6133235218
