  24
        -42.13089007
 C          3.5499363399       -2.7414784075        0.0283201483
 C          3.4025788617       -1.4230320228       -0.0092217948
 C          2.1450165685       -0.6825706601       -0.0079438929
 C          0.8982213668       -1.3065194913       -0.0107200396
 C         -0.2763842230       -0.5620903220       -0.0081550488
 C         -1.5384819611       -1.2872672217       -0.0115085733
 C         -2.7728350371       -0.8075633342        0.0000696776
 F         -3.1619874969        0.4634593651        0.0177997142
 F         -3.8557261260       -1.5846873243       -0.0042610870
 C         -0.2117513822        0.8336992097       -0.0031349640
 C          1.0230272507        1.4676610057       -0.0019201716
 O          1.1995624442        2.8157280871        0.0016180419
 C          0.0631199012        3.6470465035        0.0042205971
 C          2.1912474337        0.7067937308       -0.0050384767
 H          4.5266194773       -3.1939910907        0.0248600376
 H          2.7180503270       -3.4234957485        0.0653579676
 H          4.2865501871       -0.7983996784       -0.0413427027
 H          0.8355600603       -2.3827383901       -0.0168682392
 H         -1.4712958996       -2.3656863511       -0.0240387435
 H         -1.1192706113        1.4106856253       -0.0013388027
 H          0.4457348703        4.6663704691        0.0058471537
 H         -0.5488977710        3.4890950351        0.8977540614
 H         -0.5504920904        3.4926041608       -0.8888328862
 H          3.1360971196        1.2279271890       -0.0039696580
