  26
        -36.72507834
 C          3.6989436345        1.3935386319       -0.3890351852
 C          3.0597502070        0.3462500850        0.1177260030
 C          1.6179946470        0.1378142462        0.0751229618
 C          0.7243194529        1.2056066919       -0.0280357614
 C         -0.6486129791        1.0153137059       -0.0508990245
 C         -1.5308558043        2.1731696537       -0.1050150887
 C         -2.7458081852        2.2735849282        0.4228152688
 C         -1.0891025930       -0.3293741308       -0.0276997070
 N         -2.4118933959       -0.6670881688       -0.1045955112
 N         -2.7805701469       -2.0071594322       -0.3484491309
 N         -0.2436020696       -1.3521538872        0.0734263760
 C          1.0618450870       -1.1469606986        0.1468573838
 C          1.8980491300       -2.3838446341        0.2707075972
 H          4.7691934176        1.4866814119       -0.3190620838
 H          3.1880632540        2.1896676771       -0.9039635591
 H          3.6325192592       -0.4371650422        0.5957987818
 H          1.1082121257        2.2155980384       -0.0507418866
 H         -1.0988303558        3.0378767709       -0.5963026744
 H         -3.2013850463        1.4784758687        0.9872745732
 H         -3.3101378524        3.1877515432        0.3458121841
 H         -3.0240184536       -0.0000104204       -0.5576236922
 H         -2.8724293460       -2.4813150393        0.5498688864
 H         -2.0154920045       -2.4713471195       -0.8417645737
 H          1.2497266312       -3.2554208850        0.2518407976
 H          2.4520214645       -2.3781949099        1.2086370420
 H          2.6115511548       -2.4496889848       -0.5488215134
