  21
        -29.73687528
 C          2.8799164232       -1.2060416347        0.0000199296
 O          2.1754995225        0.0186943396       -0.0000319577
 C          0.8299333860       -0.0761044174        0.0000002063
 N          0.2722629869       -1.2705679225        0.0000069575
 C         -1.0529460812       -1.3539272492       -0.0000113953
 C         -1.8906235433       -0.2555297666       -0.0000120186
 C         -3.3817406844       -0.3894659072        0.0000053254
 C         -1.2821876381        1.0029431612        0.0000029530
 C          0.0909348937        1.1235028689        0.0000038002
 C          0.7981402662        2.4398173474        0.0000087216
 H          3.9362044151       -0.9444703031       -0.0006597760
 H          2.6319182859       -1.7944360905       -0.8863029847
 H          2.6329245819       -1.7937728643        0.8870710099
 H         -1.4451148429       -2.3626861165        0.0000071998
 H         -3.6744962054       -1.4362362620       -0.0003119581
 H         -3.8060586645        0.0922804852       -0.8802462664
 H         -3.8059807210        0.0917116435        0.8806088336
 H         -1.8972813571        1.8929093344        0.0000073865
 H          0.0859790812        3.2611933290        0.0000772467
 H          1.4385277921        2.5191564561       -0.8771608177
 H          1.4386261700        2.5190924587        0.8771119253
