  18
        -26.45095375
 C          3.1082031949        0.3840821007        0.0000498091
 C          1.6474324734        0.0479435388       -0.0000409477
 C          1.2122379910       -1.2705648549       -0.0000069356
 C         -0.1391069484       -1.5640822099        0.0000039210
 C         -1.0524130389       -0.5277367473       -0.0000000232
 F         -2.3727241323       -0.8351702140        0.0000128708
 C         -0.6629527101        0.8054564314       -0.0000444388
 C         -1.6632592721        1.9207052311        0.0000320958
 C          0.7009458858        1.0644640089       -0.0000616085
 H          3.7151042596       -0.5173288903       -0.0016245160
 H          3.3617676187        0.9725937634        0.8807695796
 H          3.3612786788        0.9756234254       -0.8787625590
 H          1.9316391342       -2.0758051954       -0.0000161396
 H         -0.4931280848       -2.5830376821        0.0000104746
 H         -2.6774477207        1.5310978755       -0.0018232784
 H         -1.5273825818        2.5482053148       -0.8798198615
 H         -1.5298008817        2.5458227088        0.8819663302
 H          1.0315475970        2.0936758529       -0.0001307670
