  24
        -42.13043088
 C          2.6962535105       -2.6035668646       -0.0903202192
 C          2.7628589846       -1.2860751234        0.0556428015
 C          1.6428974591       -0.3498723756        0.0371003642
 C          0.3184172320       -0.7727556476        0.0386615781
 C         -0.7228815802        0.1533919323        0.0183133487
 C         -2.1282390340       -0.2268896239        0.0193796002
 C         -2.6557930028       -1.4412504403       -0.0007414461
 F         -2.0270040138       -2.6108361850       -0.0269826600
 F         -3.9699635748       -1.6635754562        0.0009292305
 C         -0.4227908239        1.5121344351       -0.0018553822
 C          0.8990672071        1.9509591731       -0.0006988387
 O          1.0707278886        3.3013359437       -0.0202905588
 C          2.3808284658        3.8143814470       -0.0222755689
 C          1.9263510185        1.0181111821        0.0218962401
 H          3.5835444955       -3.2127169048       -0.0663356088
 H          1.7693410651       -3.1282895834       -0.2440211687
 H          3.7334080483       -0.8238206117        0.1912707389
 H          0.1021276409       -1.8256666298        0.0662056528
 H         -2.8440357090        0.5821238889        0.0344657539
 H         -1.2058219689        2.2535002245       -0.0174343912
 H          2.2722651286        4.8975442172       -0.0432305712
 H          2.9385227311        3.4905348980       -0.9069921820
 H          2.9280544330        3.5241989184        0.8804968751
 H          2.9588133560        1.3319024735        0.0237754974
