  24
        -45.59121591
 C         -1.8998008839       -2.6490888260        0.0111106998
 C         -1.5120335654       -1.1992377251        0.0045278947
 C         -0.1703496898       -0.8465659023        0.0243451879
 C          0.1889919622        0.4864251396        0.0262110987
 O          1.5284948843        0.9537268829        0.0434450395
 C          2.5229058364        0.1057026126       -0.0033501441
 F          2.5399980264       -0.6866157668       -1.0951328810
 F          3.6712148663        0.7812246563       -0.0147638790
 F          2.5957438292       -0.7413655731        1.0442316876
 C         -0.7760321808        1.4792963679        0.0181680506
 C         -2.1183973662        1.1506404167       -0.0006723251
 C         -3.1594066868        2.2316872884        0.0002778053
 C         -2.4974385388       -0.2022260411       -0.0174734936
 N         -3.8350851484       -0.5471697470        0.0200280891
 H         -1.0157678198       -3.2770073708        0.0709347634
 H         -2.4403816109       -2.9130358146       -0.8994525033
 H         -2.5385902163       -2.8705632817        0.8654815567
 H          0.5688228460       -1.6313778575        0.0383763448
 H         -0.4596488179        2.5093550625        0.0276580306
 H         -2.6879445492        3.2082604602        0.0570165402
 H         -3.8267985142        2.1196934579        0.8540374186
 H         -3.7591013660        2.1977318995       -0.9107639662
 H         -4.4804766035        0.1572168158       -0.2960792694
 H         -4.0588234983       -1.4780451264       -0.2899180843
