  30
        -75.09764983
 C          5.9010041325       -0.8553547100       -0.1489862881
 C          5.0450206211        0.1325970228        0.0885663429
 C          3.5897178712        0.0604927950        0.0371718445
 C          2.8417109881        1.1007517112        0.6048800677
 F          3.4832625423        2.1194609024        1.1920775530
 C          1.4559826987        1.1104503102        0.5950574154
 F          0.7964891194        2.1130658791        1.1840404584
 C          0.7368447500        0.0719203631        0.0073505326
 C         -0.7368504619        0.0718837893       -0.0076389135
 C         -1.4560825785        1.1104104385       -0.5952352853
 F         -0.7966844115        2.1130228315       -1.1843323723
 C         -2.8418165478        1.1007093467       -0.6048245765
 F         -3.4834797905        2.1194114709       -1.1919188116
 C         -3.5897210774        0.0604397401       -0.0370053204
 C         -5.0450395380        0.1325530554       -0.0880309723
 C         -5.9008999200       -0.8555742818        0.1492083757
 C         -2.8542311041       -0.9716285763        0.5557959870
 F         -3.4745352536       -1.9944423301        1.1554892868
 C         -1.4662492417       -0.9652719845        0.5680924716
 F         -0.8138519284       -1.9622127273        1.1757411644
 C          1.4663388868       -0.9652157506       -0.5682924159
 F          0.8140396834       -1.9621574185       -1.1760411961
 C          2.8543214044       -0.9715611578       -0.5557799450
 F          3.4747173093       -1.9943966914       -1.1553404201
 H          6.9608198004       -0.6835572608       -0.0731893518
 H          5.5994670710       -1.8526550398       -0.4134030382
 H          5.4228878619        1.1044207429        0.3767276191
 H         -5.4230129507        1.1045458937       -0.3754499001
 H         -5.5992141895       -1.8529791483        0.4130240713
 H         -6.9607485324       -0.6838217937        0.0737257518
  30
        -75.09756042
 C          5.9253044419        0.6467753883        0.4514164749
 C          5.0437170562       -0.1244900864       -0.1762629536
 C          3.5904448060       -0.0508391847       -0.0903988068
 C          2.8653227834        0.9829491448        0.5127147754
 F          3.4937614490        2.0201237719        1.0781432781
 C          1.4774777617        0.9808913995        0.5441105823
 F          0.8373352855        1.9819198140        1.1578704064
 C          0.7366827956       -0.0542896418       -0.0200411067
 C         -0.7366290126       -0.0543996836        0.0199333691
 C         -1.4775747036        0.9807393630       -0.5440911198
 F         -0.8375676217        1.9819540983       -1.1576852628
 C         -2.8654199189        0.9825689721       -0.5128354649
 F         -3.4938219836        2.0196011488       -1.0785643139
 C         -3.5905033572       -0.0514579098        0.0899674385
 C         -5.0437327889       -0.1258410783        0.1754490356
 C         -5.9257860493        0.6494541086       -0.4466362371
 C         -2.8296824443       -1.0816513373        0.6603980332
 F         -3.4575534362       -2.0991391080        1.2644172429
 C         -1.4444733901       -1.0905188727        0.6251373951
 F         -0.7736123521       -2.0895298929        1.2075800652
 C          1.4446220955       -1.0901551038       -0.6255858911
 F          0.7738454255       -2.0891292289       -1.2081878441
 C          2.8298252573       -1.0809912544       -0.6610846160
 F          3.4579343102       -2.0981443585       -1.2654172918
 H          6.9801973540        0.4879781509        0.3077510521
 H          5.6526361910        1.4425366521        1.1202990958
 H          5.4003940508       -0.9179856089       -0.8191665386
 H         -5.4001514710       -0.9234455038        0.8133900273
 H         -5.6537431952        1.4499668621       -1.1100509424
 H         -6.9805626977        0.4893240235       -0.3035782566
