  30
        -48.97294776
 C          3.5447265335        0.7885190119       -1.4202311468
 N          3.0859309997        1.1599757237       -0.0960851838
 C          1.7334781424        0.9920943809        0.1879625247
 C          0.9202301791        2.0332722268        0.5897887259
 C         -0.4460501704        1.8415537494        0.7833658665
 C         -1.0457338431        0.6200531318        0.5695982756
 C         -2.5043168484        0.5550640816        0.6361257336
 C         -3.2999608380       -0.0499637093       -0.2295830068
 F         -2.9414278813       -0.7339238081       -1.3125168659
 F         -4.6329568911       -0.0411690216       -0.1435847463
 C          1.1772116608       -0.3254263621        0.1406272439
 C         -0.2213844646       -0.5116403414        0.3098046101
 C         -0.7293528338       -1.8269448283        0.3068711242
 C          0.0910609815       -2.9074820289        0.1370149608
 C          1.4712555460       -2.7253507833       -0.0004790254
 C          1.9991805342       -1.4636270705        0.0119237526
 C          3.7472937104        2.3445159212        0.3962150173
 H          2.8936891372        0.0343329660       -1.8530325839
 H          4.5622558961        0.3954030528       -1.3625459418
 H          3.5511384952        1.6602054768       -2.0886778339
 H          1.3181042391        3.0284197557        0.7079909241
 H         -1.0576184439        2.6945674501        1.0407205238
 H         -2.9937294770        1.1222998544        1.4148106719
 H         -1.7820871343       -1.9852156452        0.4793840585
 H         -0.3196054629       -3.9062793085        0.1414796168
 H          2.1189017949       -3.5851366494       -0.0894664923
 H          3.0685564351       -1.3298979905       -0.0273978688
 H          4.8239638380        2.1766917480        0.3438910856
 H          3.4737378068        2.5105390329        1.4363328882
 H          3.5146429008        3.2456161239       -0.1883622621
