  34
        -49.76486660
 C          3.7685102068        0.3970483566       -1.2619307260
 C          3.0491822956        0.8692339790        0.0003516408
 C          2.9118936526        2.3922006882        0.0028131764
 O          1.6764527102        0.3964686135        0.0006153319
 C          1.4086916461       -0.9050860810       -0.0004769112
 N          0.0429914131       -1.1404737977        0.0001679844
 C         -0.4693074991       -2.4310874415        0.0006747556
 C         -1.8186820459       -2.4027935541        0.0007616240
 C         -1.0307613859       -0.2570157905       -0.0000982715
 C         -2.2142741735       -1.0268363804        0.0002215810
 C         -3.4573944167       -0.4028152464        0.0000452489
 C         -3.5194696715        0.9777331148       -0.0004151641
 C         -4.8371079911        1.6941851373        0.0003648355
 C         -2.3341420631        1.7214888113       -0.0007989676
 C         -1.0875172448        1.1280793500       -0.0006685941
 O          2.2072806260       -1.8074197992       -0.0017371953
 C          3.7705197025        0.3931361845        1.2600109975
 H          3.2128656745        0.7033512569       -2.1459109972
 H          3.8608225776       -0.6854819858       -1.2620753977
 H          4.7617080310        0.8353324558       -1.3004200811
 H          2.3658020024        2.7197201250       -0.8782422766
 H          3.8953129923        2.8524249892        0.0000334238
 H          2.3717056487        2.7175907093        0.8882833441
 H          0.2135743465       -3.2579426742        0.0009710332
 H         -2.4766886964       -3.2488864676        0.0011598073
 H         -4.3597890584       -0.9965619861        0.0003624562
 H         -5.6637174183        0.9885612104       -0.0081626451
 H         -4.9202876248        2.3378653292       -0.8745573662
 H         -4.9265885287        2.3233997895        0.8852321645
 H         -2.4011382418        2.7999995281       -0.0012559441
 H         -0.1930980498        1.7273234096       -0.0009708124
 H          4.7628300691        0.8333322852        1.2995673854
 H          3.8650076348       -0.6891924770        1.2555368945
 H          3.2149660127        0.6945579219        2.1457314034
