  22
        -29.87315513
 C         -3.8949837240       -0.3304191616        0.0108290495
 C         -2.9579439414        0.6092965515        0.0590091214
 C         -1.5153972846        0.4115519127        0.0162566930
 C         -0.6806441818        1.5303156809       -0.0467026021
 C          0.6878160998        1.3816326082       -0.1019012536
 C          1.2894385781        0.1253075277       -0.0897533393
 C          2.7380324354       -0.0160788091       -0.1967491657
 C          3.6293438828        0.8621946110        0.2465628035
 C          0.4575700397       -1.0092245234       -0.0022509790
 N          0.9893688335       -2.2866171097       -0.0049497616
 C         -0.9226276609       -0.8464168409        0.0435010646
 H         -4.9415609292       -0.0800289610        0.0456839528
 H         -3.6663915678       -1.3792584423       -0.0702866178
 H         -3.2637481862        1.6466383103        0.1281180618
 H         -1.1151257545        2.5193313324       -0.0658603644
 H          1.3152217979        2.2567427234       -0.1822135699
 H          3.0857012559       -0.9141872733       -0.6933764801
 H          3.3400124790        1.7603325773        0.7656663588
 H          4.6870902235        0.7084161926        0.1162291686
 H          1.9243378593       -2.3860414783        0.3540122511
 H          0.3589740697       -3.0152889663        0.2900372262
 H         -1.5381633987       -1.7316521138        0.1100714714
