  24
        -40.18064948
 C         -4.8028448842       -1.7575200019        0.1064407293
 C         -3.5008031132       -1.5191113551        0.0094432826
 C         -2.8510833315       -0.2126041737       -0.0107733800
 C         -3.5637247111        0.9886191787       -0.0225288174
 C         -2.8950639835        2.1978705057       -0.0416983297
 C         -1.5139786087        2.2353756143       -0.0492149185
 C         -0.7693940411        1.0517319058       -0.0384152358
 C          0.6774868207        1.1394945531       -0.0474932144
 C          1.5483421882        0.1191301465       -0.0088902635
 C          2.9723949315        0.3166609574       -0.0214538137
 C          3.8519871641       -0.6777382694        0.0184510242
 F          3.5575890794       -1.9732689729        0.0745990323
 F          5.1726923566       -0.5210647429        0.0077598559
 C         -1.4600031614       -0.1599939862       -0.0216167942
 H         -5.1872666544       -2.7629828424        0.1150361509
 H         -5.5372630910       -0.9743100957        0.1835036155
 H         -2.8197392263       -2.3591021941       -0.0568697797
 H         -4.6421587051        0.9780663411       -0.0219577271
 H         -3.4565753139        3.1208548333       -0.0520045519
 H         -1.0009283818        3.1862921567       -0.0639644168
 H          1.0730586071        2.1475698506       -0.0869555757
 H          1.2136376747       -0.9064627624        0.0351784725
 H          3.3619474461        1.3219503748       -0.0656373520
 H         -0.9090565752       -1.0884887215       -0.0163765415
