  27
        -32.82036165
 C         -2.2602531362       -0.8506499396        1.4594169674
 C         -3.0211224259       -0.8333108652        0.1388016129
 C         -2.6659069230        0.3546467923       -0.7587857506
 C         -1.3949597823        0.1566056595       -1.5963717156
 C         -0.1327347612        0.0845400885       -0.7932863529
 C          0.5915626732       -1.1245414216       -0.5968004841
 C          1.7089267754       -0.9862010028        0.1579630273
 C          2.6922460106       -2.0238915080        0.5680672303
 S          1.9092266078        0.6663317017        0.6560912990
 C          0.4610365984        1.1465364614       -0.1811152496
 C          0.0288249788        2.5701739310       -0.1398159905
 H         -2.5926639741       -1.6851642667        2.0734415081
 H         -2.4372669567        0.0704341863        2.0111191644
 H         -1.1920560755       -0.9523120914        1.2949275130
 H         -4.0911993811       -0.7924997365        0.3589515897
 H         -2.8345996537       -1.7640217420       -0.4016096233
 H         -2.5624019944        1.2507141540       -0.1450635062
 H         -3.4915857089        0.5240845296       -1.4549935067
 H         -1.3202204982        0.9892886001       -2.3025566380
 H         -1.4943466314       -0.7624422292       -2.1776362343
 H          0.2772504003       -2.0669636444       -1.0114055110
 H          2.4100079216       -2.9871111235        0.1492081186
 H          2.7310972088       -2.1108472913        1.6540032667
 H          3.6921887405       -1.7673194555        0.2186335553
 H          0.8938661350        3.2283209980       -0.0870658774
 H         -0.5917801064        2.7621806778        0.7371327545
 H         -0.5497063920        2.8163861919       -1.0282140524
