  20
        -43.32823203
 C          3.8755569822        0.0824033506        0.0837787161
 C          2.7785927912        0.8258092121       -0.0201137579
 C          1.3974528963        0.3653101916       -0.0126995476
 C          0.3647117384        1.3117528965       -0.0120534422
 F          0.6793290076        2.6175207838       -0.0152865260
 C         -0.9773116965        0.9690999194       -0.0045561343
 F         -1.8699897506        1.9698024671       -0.0038089322
 C         -1.3975123396       -0.3654287778       -0.0008085904
 C         -2.7782045461       -0.8270112705        0.0064815309
 C         -3.8777709486       -0.0811726221        0.0454355498
 C         -0.3645590873       -1.3118457367       -0.0079145404
 F         -0.6787051057       -2.6177381677       -0.0094295555
 C          0.9774652759       -0.9691552311       -0.0128141372
 F          1.8706152168       -1.9693846902       -0.0255973275
 H          4.8466297872        0.5466285249        0.0677055456
 H          3.8631123255       -0.9868381742        0.1896726814
 H          2.8767596430        1.8991424192       -0.1128272972
 H         -2.8743199383       -1.9042457964       -0.0203045221
 H         -3.8693827630        0.9928427352        0.0770594253
 H         -4.8475330749       -0.5484699922        0.0474272094
  20
        -43.32819868
 C          3.8484763322       -0.0976050401        0.0838756857
 C          2.8122413579        0.7270267940       -0.0297205061
 C          1.3993026359        0.3760646789       -0.0155994482
 C          0.4439557766        1.4014433366       -0.0150367689
 F          0.8565111700        2.6790949439       -0.0220354899
 C         -0.9155370797        1.1500583044       -0.0035829296
 F         -1.7571903328        2.1961509092       -0.0006509911
 C         -1.4413883738       -0.1492103521        0.0041863411
 C         -2.8865249593       -0.3250196284        0.0147862732
 C         -3.5608477261       -1.4705277217        0.0225669320
 C         -0.4886344636       -1.1728770050       -0.0008468762
 F         -0.8686528401       -2.4593918138        0.0021004497
 C          0.8758298218       -0.9205289324       -0.0099279410
 F          1.6914285039       -1.9855484784       -0.0219098252
 H          4.8525542835        0.2897408469        0.0606558111
 H          3.7534430410       -1.1611843843        0.2041123428
 H          2.9931254983        1.7883569201       -0.1359488570
 H         -3.4349933820        0.6075547059        0.0161687821
 H         -3.0936632413       -2.4381449621        0.0219806356
 H         -4.6372819878       -1.4632627509        0.0298627416
