  19
        -30.94181947
 C          3.5198657860        1.0656580738       -0.0519618803
 C          2.8944774902       -0.1027464644        0.0217809954
 C          1.4530776771       -0.3165057573        0.0126105235
 C          0.9551218058       -1.6212501018        0.0487867201
 N         -0.3328786713       -1.9104138058        0.0369205742
 C         -1.1849957160       -0.9184550728       -0.0081832867
 F         -2.4792191489       -1.2747565089       -0.0150605856
 C         -0.8491478344        0.4424559631       -0.0427799050
 C         -1.8926335440        1.4586794035       -0.0903772540
 C         -1.7181883153        2.7570487416        0.1211089942
 C          0.5153758793        0.7160854154       -0.0355649844
 H          4.5942978480        1.1245800552       -0.0392975395
 H          2.9992400851        2.0046468874       -0.1307535824
 H          3.4782844687       -1.0117218444        0.0945534952
 H          1.6198052612       -2.4738409964        0.0844279620
 H         -2.8838039840        1.0790475507       -0.2996345908
 H         -0.7597140671        3.1859238268        0.3596747488
 H         -2.5440237442        3.4449882529        0.0726900465
 H          0.8455197816        1.7415186676       -0.0779409936
