  46
        -81.57841781
 C          2.1239368748       -0.7677959956        2.9992297643
 O          1.2577311605       -1.0958823465        1.9241459466
 C          1.6789278089       -2.0734437514        1.1090224831
 C          0.6834630228       -2.3671656853        0.0425086159
 C          0.0488088272       -1.3647089271       -0.7031069820
 N          0.4189137842       -0.0194210247       -0.5821807995
 C         -0.5504624398        0.9721264745       -0.6034499063
 C         -1.8177481711        0.7274120979       -0.0715873617
 C         -2.7852972798        1.7179072610       -0.1076537476
 C         -4.1342860318        1.3927219351        0.4647125721
 F         -4.0608144433        0.9630214401        1.7385228735
 F         -4.9815043806        2.4305549574        0.4657955670
 F         -4.7483072351        0.4061508813       -0.2199054754
 C         -2.5221888334        2.9652120145       -0.6560154203
 C         -1.2604373607        3.2076471900       -1.1760405111
 C         -0.2875121317        2.2296090109       -1.1572938178
 C          1.7816267756        0.3098958698       -0.4663417638
 C          2.7417920147       -0.4217457926       -1.1618657220
 C          4.0809322384       -0.1197815792       -1.0216461627
 C          4.5025417195        0.9194875266       -0.1993016939
 C          5.9618927823        1.2212153520       -0.0488981238
 C          3.5380814480        1.6520726862        0.4802817788
 C          2.1943366610        1.3538563911        0.3564624897
 C         -0.9253163114       -1.7353422619       -1.6311223343
 C         -1.2554406489       -3.0628643905       -1.8175727852
 C         -0.5990967966       -4.0548506926       -1.1047913927
 C          0.3707079597       -3.7028678859       -0.1857257218
 O          2.7061318041       -2.6804857931        1.2724574797
 H          1.5869470767       -0.0504067767        3.6140472485
 H          3.0477260362       -0.3295407979        2.6154849447
 H          2.3684154551       -1.6629769893        3.5746107681
 H         -2.0416369235       -0.2296808955        0.3744754703
 H         -3.2856987432        3.7257976888       -0.6748972055
 H         -1.0401868903        4.1699201622       -1.6118715063
 H          0.6855882384        2.4266722130       -1.5810728864
 H          2.4347191696       -1.2305517649       -1.8083845410
 H          4.8138828507       -0.7007787736       -1.5614334230
 H          6.4698120269        0.3864233014        0.4333259196
 H          6.1164263552        2.1140052876        0.5517044882
 H          6.4232200357        1.3707297761       -1.0238848322
 H          3.8403994453        2.4616308083        1.1294856759
 H          1.4594633450        1.9181923142        0.9111527728
 H         -1.4141067086       -0.9680386730       -2.2133093302
 H         -2.0151322762       -3.3253835513       -2.5381760134
 H         -0.8430262292       -5.0932962297       -1.2650527503
 H          0.8925367646       -4.4561138532        0.3848724280
