  32
        -39.10338068
 C          3.5764471558       -2.3148634822       -0.0186590580
 C          2.2504539399       -2.2738959837        0.0251707664
 C          1.4095064327       -1.0817519330        0.0119161037
 C          1.9268968087        0.2101586163       -0.0012372257
 C          1.0861938380        1.3171925630       -0.0125467212
 C          1.6846341582        2.6481855596       -0.0228586208
 C          1.0500089658        3.8127185702        0.0329297836
 C         -0.2959943760        1.1167190634       -0.0149367238
 C         -0.8442253461       -0.1559782781       -0.0016931515
 C         -2.3455744708       -0.4063797895       -0.0027698040
 C         -3.1623369294        0.8886308703       -0.0152516940
 C         -2.7164217881       -1.2160359211       -1.2531809908
 C         -2.7217445511       -1.1946630289        1.2597048251
 C          0.0253177867       -1.2413243257        0.0130684212
 H          4.1080399920       -3.2510345749       -0.0049560436
 H          4.1873932980       -1.4301422228       -0.0712211088
 H          1.7024384504       -3.2078788945        0.0728662854
 H          2.9954357064        0.3635742662        0.0017386296
 H          2.7670821127        2.6493236340       -0.0770714848
 H         -0.0216312940        3.8946849923        0.0948708704
 H          1.5898907579        4.7441974311        0.0211576436
 H         -0.9364086895        1.9811255083       -0.0302386029
 H         -2.9534165760        1.4751714711       -0.9070559386
 H         -2.9553983514        1.4906328284        0.8666736242
 H         -4.2234980355        0.6470817777       -0.0144286729
 H         -2.4319874769       -0.6715053464       -2.1513136262
 H         -3.7898274574       -1.3919787072       -1.2812299573
 H         -2.2140313794       -2.1792241166       -1.2664679989
 H         -2.4375779292       -0.6365681394        2.1495578573
 H         -2.2226495152       -2.1591538702        1.2897389609
 H         -3.7957466458       -1.3668184234        1.2881424036
 H         -0.3692918746       -2.2469989193        0.0233376275
  32
        -39.10334932
 C          3.5925877976       -2.0115131300        0.1258898453
 C          2.2801757916       -2.0578452535       -0.0653081884
 C          1.3534041687       -0.9306754065       -0.0342095281
 C          1.7810740362        0.3927766871       -0.0028426087
 C          0.8615858325        1.4336962097        0.0316481926
 C          1.2618658403        2.8371531385        0.0575967450
 C          2.4825584686        3.3182793355       -0.1420838528
 C         -0.5026395963        1.1320599173        0.0449439148
 C         -0.9621181574       -0.1753191086        0.0053622873
 C         -2.4413512130       -0.5323913241        0.0055544135
 C         -3.3475336423        0.6998814871        0.0722586653
 C         -2.7690220828       -1.2972261616       -1.2845185314
 C         -2.7449780899       -1.4133967455        1.2254375918
 C         -0.0156268613       -1.1924049447       -0.0395303479
 H          4.1960431569       -2.9024375164        0.0890787533
 H          4.1196905653       -1.0960709869        0.3333371066
 H          1.8138669245       -3.0182399723       -0.2518862101
 H          2.8358887350        0.6122471512       -0.0055749668
 H          0.4522202209        3.5320785465        0.2478301388
 H          3.3302120558        2.6891932927       -0.3534724324
 H          2.6805049569        4.3760124595       -0.1071217067
 H         -1.1978287969        1.9557797873        0.0777698168
 H         -3.1952926143        1.3457225088       -0.7894672238
 H         -3.1685379085        1.2685366055        0.9819399511
 H         -4.3889179098        0.3838870132        0.0739390112
 H         -2.5352826950       -0.6856596088       -2.1536766560
 H         -3.8273325476       -1.5483523044       -1.3132645949
 H         -2.1988234839       -2.2193554260       -1.3546019227
 H         -2.4912698480       -0.8857362244        2.1426470707
 H         -2.1778782787       -2.3395972459        1.1982837218
 H         -3.8035020824       -1.6638708812        1.2525748734
 H         -0.3345406034       -2.2241493323       -0.0707013986
  32
        -39.10334914
 C          3.5918519571       -2.0124605550       -0.1115157691
 C          2.2802082752       -2.0572119938        0.0852269082
 C          1.3533431301       -0.9303715874        0.0451387494
 C          1.7812273498        0.3928215685        0.0073886119
 C          0.8618808610        1.4334663033       -0.0366390588
 C          1.2627628201        2.8366534903       -0.0692122579
 C          2.4806864563        3.3187157833        0.1443561672
 C         -0.5022836778        1.1318798848       -0.0534805050
 C         -0.9619589493       -0.1752396780       -0.0073445660
 C         -2.4411967259       -0.5323382761       -0.0119494790
 C         -3.3470560693        0.6996469121       -0.0880962955
 C         -2.7392470325       -1.4189056796       -1.2292327481
 C         -2.7744621450       -1.2914529967        1.2800621472
 C         -0.0156720216       -1.1920728235        0.0474232950
 H          4.1959350993       -2.9026181282       -0.0673172746
 H          4.1175120515       -1.0990729472       -0.3313503437
 H          1.8145391387       -3.0157926052        0.2825798802
 H          2.8360410142        0.6123223798        0.0125377269
 H          0.4560549035        3.5302854346       -0.2758509637
 H          3.3242564924        2.6907517163        0.3745839097
 H          2.6798836588        4.3760563254        0.1042738754
 H         -1.1972586075        1.9554569770       -0.0940208431
 H         -3.1649068383        1.2636524843       -1.0000773320
 H         -3.1976881127        1.3498528128        0.7708857266
 H         -4.3884433686        0.3836084616       -0.0917711565
 H         -2.4807876918       -0.8955923091       -2.1475997545
 H         -3.7977216654       -1.6691275668       -1.2604172768
 H         -2.1726031709       -2.3451850215       -1.1950338849
 H         -2.5449582764       -0.6757588099        2.1474433009
 H         -2.2043227303       -2.2130756244        1.3571169712
 H         -3.8328260390       -1.5428093248        1.3050969242
 H         -0.3347007619       -2.2236295809        0.0835948187
