30
 energy: -46.521239317676 gnorm: 0.000035912083 xtb: 6.4.1 (23d549d)
C        -5.90665089090000    0.34049929680000    0.03949791900000
C        -4.83342579110000   -0.44066713870000   -0.01046396840000
C        -3.43971947750000   -0.01631738680000   -0.00737135050000
C        -3.05471322360000    1.32591160370000   -0.00089255510000
C        -1.72128698520000    1.71023433350000    0.00253682010000
C        -0.74608544250000    0.73208211890000   -0.00057869170000
C        -1.11937503380000   -0.62560602070000   -0.00827879550000
C        -2.44170650950000   -1.00328799570000   -0.01266143770000
C         0.10270745010000   -1.47322375790000   -0.01134082800000
O         0.16809172160000   -2.68041831380000   -0.01778958110000
C         1.22755712190000   -0.49961135220000   -0.00464808650000
C         2.58083642450000   -0.74125168240000   -0.00418485380000
C         3.46770622710000    0.34613027630000    0.00239581100000
C         4.91457507610000    0.17844821700000    0.00376930920000
C         5.57860337570000   -0.97202937690000    0.01132265470000
C         2.94116456110000    1.63999603170000    0.00754701230000
C         1.57508244890000    1.88691941830000    0.00736252920000
C         0.71038274470000    0.81078190200000    0.00137957090000
H        -6.89922156100000   -0.07580513320000    0.03330550290000
H        -5.84926899710000    1.41427163610000    0.09028635220000
H        -4.97164206430000   -1.51405592930000   -0.05500949160000
H        -3.81354184210000    2.09308381450000   -0.00093080820000
H        -1.45832606090000    2.75767702920000    0.00696864230000
H        -2.70489249340000   -2.05111508530000   -0.01890161280000
H         2.94023439120000   -1.75800001360000   -0.00947272960000
H         5.47465749660000    1.10593445720000   -0.00097650420000
H         5.08860409420000   -1.93016562780000    0.01765027710000
H         6.65478485880000   -0.99447615800000    0.01200046170000
H         3.62416928430000    2.47821570160000    0.01225106860000
H         1.20466635230000    2.90125725070000    0.01180752180000
