  29
        -43.52815987
 C         -1.1379262078       -3.1894786626       -0.8579183695
 C         -1.2771340127       -2.3479644487        0.1540507769
 C         -0.7807057011       -0.9554939998        0.1215507479
 C         -1.5927982920        0.1645321316        0.0832962289
 O         -2.9566312096        0.2207832101        0.0745229602
 C         -3.7562089857       -0.9010645075        0.3550449847
 C         -1.0251443762        1.4532100656       -0.0071819027
 C          0.3261832379        1.6789224545       -0.0504558356
 C          0.9235514992        3.0019677291       -0.1528542328
 C          0.2736436859        4.1567186795       -0.2430003725
 C          1.1911070103        0.5452087465        0.0156419784
 N          2.5186230681        0.7545220638       -0.0089858631
 C          3.3295818185       -0.2634588910        0.0592981424
 C          2.8911034959       -1.5905832417        0.1718833976
 C          1.5440455293       -1.8323629334        0.1950583142
 C          0.6306945742       -0.7588965135        0.1030171445
 H         -1.4818451893       -4.2088578333       -0.8024452704
 H         -0.6845668938       -2.8837681630       -1.7868142407
 H         -1.7299922931       -2.6839887329        1.0793459482
 H         -4.7832531469       -0.5519395974        0.2468097233
 H         -3.6080501694       -1.2517864544        1.3803195504
 H         -3.5774934291       -1.7202748471       -0.3451939658
 H         -1.7263746209        2.2712742168       -0.0492667446
 H          2.0042934519        2.9859911024       -0.1524626800
 H         -0.8010527296        4.2262145698       -0.2508078514
 H          0.8052684907        5.0900922850       -0.3147124720
 H          4.3865165156       -0.0294185132        0.0318661559
 H          3.6054532033       -2.3964515759        0.2432415959
 H          1.1716786280       -2.8421417260        0.2884761087
