  19
        -30.23240177
 C         -1.6482345271       -2.9359930128        0.0000353801
 C         -1.6740290961       -1.4429537392       -0.0000036308
 C         -2.8250663955       -0.7064037958       -0.0000287347
 C         -2.8250671038        0.7064015204       -0.0000310376
 C         -1.6740304598        1.4429527801       -0.0000073802
 C         -1.6482368882        2.9359929838        0.0000377449
 C         -0.4523588496        0.7216044437       -0.0000004976
 N          0.7569667543        1.2707896364        0.0000066701
 Se         1.9603851520        0.0000002238       -0.0000059401
 N          0.7569674224       -1.2707880124        0.0000102667
 C         -0.4523580682       -0.7216043030        0.0000007633
 H         -2.6562033644       -3.3423894316        0.0000478070
 H         -1.1135450300       -3.2981863576        0.8767676799
 H         -1.1135446565       -3.2982504931       -0.8766695882
 H         -3.7780096520       -1.2160832943       -0.0000579147
 H         -3.7780106750        1.2160804210       -0.0000628719
 H         -2.6562060557        3.3423881163       -0.0001023505
 H         -1.1134084401        3.2982533507       -0.8765805675
 H         -1.1136870500        3.2981847958        0.8768567150
