44
 energy: -76.317734253422 gnorm: 0.000056437683 xtb: 6.4.1 (23d549d)
C        -5.02611009950000   -4.03307682220000   -0.00545632370000
O        -3.63770583010000   -4.22257897200000    0.09352646180000
C        -2.83155495610000   -3.11814115640000    0.09283355820000
C        -3.28063392170000   -1.81131914210000    0.00899590330000
C        -2.33845413390000   -0.78719458830000    0.01318632940000
C        -2.45823243450000    0.64201114470000   -0.03135288100000
C        -3.55541258410000    1.49216265870000   -0.13061254120000
C        -3.32764062240000    2.85683752610000   -0.17870917370000
O        -4.30479966330000    3.80922564470000   -0.26834489870000
C        -5.64396558740000    3.38673693410000   -0.30834421870000
C        -2.01632628800000    3.35750865120000   -0.14905189980000
C        -0.92314114150000    2.52623947570000   -0.05123279600000
C        -1.14680458580000    1.15781589990000    0.02987075460000
N        -0.24419408250000    0.11139560980000    0.10152831660000
C         1.14309740730000    0.22947867260000    0.18072557410000
C         1.72676938540000    1.12103247900000    1.08023060810000
C         3.09800941700000    1.23250356240000    1.15328440770000
C         3.93255285790000    0.45836657330000    0.34189349420000
C         5.36846817250000    0.62550703010000    0.47916849670000
C         6.33942322370000   -0.00544674300000   -0.16571069280000
F         6.22890872120000   -0.94578411490000   -1.09717841250000
F         7.63196377580000    0.23588550410000    0.05054329550000
C         3.33927846130000   -0.43295995130000   -0.55572041350000
C         1.96737568480000   -0.54282779740000   -0.63701092270000
C        -0.95945483900000   -1.07339644220000    0.09008906070000
C        -0.51695798030000   -2.38493776760000    0.20519749340000
C        -1.45822355110000   -3.38967242770000    0.19972886580000
H        -5.46243480670000   -5.03073574950000    0.00516741950000
H        -5.29867476340000   -3.52993194900000   -0.93944552880000
H        -5.41623683300000   -3.45995212660000    0.84261624260000
H        -4.32905499970000   -1.56819551440000   -0.05168617220000
H        -4.54833529010000    1.07486551090000   -0.17458689720000
H        -6.23948755280000    4.29629110530000   -0.37060404100000
H        -5.92001607060000    2.83595412260000    0.59733110830000
H        -5.84418751280000    2.76392878070000   -1.18688098510000
H        -1.88983334510000    4.42653399600000   -0.21097871450000
H         0.07545778100000    2.93479572690000   -0.05318699140000
H         1.09761084400000    1.70711075760000    1.73256871000000
H         3.53694586570000    1.92306020060000    1.85845855500000
H         5.70114171030000    1.35717594580000    1.20148514830000
H         3.94930624860000   -1.03935880260000   -1.20460677270000
H         1.52195804050000   -1.21674723650000   -1.35270511670000
H         0.53091077320000   -2.61908921570000    0.31062722490000
H        -1.15970219420000   -4.42238343160000    0.28325269420000
