  51
        -58.13892270
 C          4.9798404198       -3.6236015907       -0.5264330284
 C          4.8997702916       -2.1948410834       -1.0498815857
 C          3.5483073962       -1.5519318833       -0.7466600784
 C          3.4778511302       -0.1143744934       -1.2575928309
 C          2.1102956903        0.5397222787       -1.0612497446
 C          1.7713656364        0.7879442757        0.4131507474
 C          0.4614539106        1.5000342857        0.5757768160
 C          0.3069512517        2.8261220268        0.3008279336
 C          1.3102489694        3.8126459861       -0.1876327411
 S         -1.3209754708        3.3493636683        0.5901627652
 C         -1.7905679542        1.7597812437        1.1015596946
 C         -3.1948492878        1.5329238958        1.5491984447
 C         -0.7468838731        0.8849553994        1.0377288635
 C         -0.8602991402       -0.5549738550        1.4426593422
 C         -0.8708405537       -1.5236399739        0.2523119423
 C         -2.0593654991       -1.3194841106       -0.6878142726
 C         -3.3785654476       -1.8762884612       -0.1467174405
 C         -3.4933262201       -3.4002919293       -0.2271234434
 C         -3.7068662724       -3.9085318755       -1.6482015647
 H          5.9485904323       -4.0620193565       -0.7546850582
 H          4.2080616416       -4.2405517158       -0.9818413486
 H          4.8403210392       -3.6432945336        0.5524383976
 H          5.0660930435       -2.1942074005       -2.1297345157
 H          5.6924980103       -1.5968500149       -0.5940177337
 H          3.3842595154       -1.5717482892        0.3322894682
 H          2.7563801833       -2.1415787208       -1.2154196984
 H          3.7138472399       -0.1123388984       -2.3250208485
 H          4.2395719827        0.4852665382       -0.7527209056
 H          1.3386879400       -0.0872566764       -1.5135006561
 H          2.1000997755        1.4953289892       -1.5881676948
 H          2.5685024461        1.3915921707        0.8571523526
 H          1.7368115467       -0.1602039647        0.9472898827
 H          1.2994934140        3.8733760019       -1.2772885207
 H          2.3119375201        3.5283159899        0.1283972555
 H          1.0853089828        4.8031514216        0.2031603345
 H         -3.7210195632        2.4825377197        1.6092361260
 H         -3.2161996165        1.0645638065        2.5333985886
 H         -3.7300952288        0.8873696686        0.8531720216
 H         -1.7717499551       -0.6901125170        2.0255918948
 H         -0.0177359786       -0.8109145205        2.0913404171
 H         -0.8751123033       -2.5457494759        0.6366304056
 H          0.0507435049       -1.3923456521       -0.3150773870
 H         -1.8401720621       -1.7945971714       -1.6455878358
 H         -2.1687913495       -0.2493307924       -0.8767210133
 H         -4.2066589613       -1.4388386810       -0.7103336154
 H         -3.4942952823       -1.5716343080        0.8950773529
 H         -4.3397269917       -3.7172844819        0.3872695164
 H         -2.5965697315       -3.8612388200        0.1910835315
 H         -4.6021919654       -3.4656395549       -2.0797556491
 H         -3.8250146314       -4.9899028438       -1.6493414717
 H         -2.8617417543       -3.6609446835       -2.2855249017
