  30
        -41.32282271
 C         -1.5109527489       -3.2149744338       -0.7728892115
 C         -0.9119991366       -2.1492057651       -0.2582430959
 C         -1.4867610976       -0.8068083223       -0.1945666256
 C         -2.8654955132       -0.6135994423       -0.1179155286
 C         -3.4044414034        0.6541132808       -0.0222156297
 C         -2.5702739301        1.7604622285        0.0034049639
 C         -1.2010479509        1.5877478742       -0.0633547108
 C         -0.6467016281        0.3161875465       -0.1577540312
 C          0.8169450921        0.1832910264       -0.3019236452
 C          1.3166026708       -0.3713770407       -1.4764967017
 C          2.6765592039       -0.4444870808       -1.7117549613
 C          3.5623702940        0.0550981289       -0.7712784488
 C          3.0790512853        0.6087428001        0.3978227069
 C          1.7108550025        0.6676895976        0.6631787656
 C          1.2850488517        1.2054397099        1.9560591423
 C          0.2610195509        0.7742297567        2.6786703435
 H         -1.0328219505       -4.1795440677       -0.7827767062
 H         -2.4906601521       -3.1669860993       -1.2183710260
 H          0.0902266859       -2.2423121768        0.1420670278
 H         -3.5183281881       -1.4736636005       -0.1132170721
 H         -4.4754812342        0.7813851633        0.0379377861
 H         -2.9868000466        2.7542295548        0.0762892324
 H         -0.5437160492        2.4453111428       -0.0478076397
 H          0.6190196615       -0.7377052593       -2.2165055069
 H          3.0436001745       -0.8802611463       -2.6291963347
 H          4.6267831604        0.0136511894       -0.9501375741
 H          3.7703790255        0.9905106555        1.1362719171
 H          1.9263824504        1.9833249311        2.3543978688
 H         -0.3819046508       -0.0239169899        2.3497641437
 H          0.0331890857        1.2030503987        3.6399542265
