30
 energy: -41.322822713392 gnorm: 0.000033354153 xtb: 6.4.1 (23d549d)
C        -1.51095274890000   -3.21497443380000   -0.77288921150000
C        -0.91199913660000   -2.14920576510000   -0.25824309590000
C        -1.48676109760000   -0.80680832230000   -0.19456662560000
C        -2.86549551320000   -0.61359944230000   -0.11791552860000
C        -3.40444140340000    0.65411328080000   -0.02221562970000
C        -2.57027393010000    1.76046222850000    0.00340496390000
C        -1.20104795090000    1.58774787420000   -0.06335471080000
C        -0.64670162810000    0.31618754650000   -0.15775403120000
C         0.81694509210000    0.18329102640000   -0.30192364520000
C         1.31660267080000   -0.37137704070000   -1.47649670170000
C         2.67655920390000   -0.44448708080000   -1.71175496130000
C         3.56237029400000    0.05509812890000   -0.77127844880000
C         3.07905128530000    0.60874280010000    0.39782270690000
C         1.71085500250000    0.66768959760000    0.66317876560000
C         1.28504885170000    1.20543970990000    1.95605914230000
C         0.26101955090000    0.77422975670000    2.67867034350000
H        -1.03282195050000   -4.17954406770000   -0.78277670620000
H        -2.49066015210000   -3.16698609930000   -1.21837102600000
H         0.09022668590000   -2.24231217680000    0.14206702780000
H        -3.51832818810000   -1.47366360050000   -0.11321707210000
H        -4.47548123420000    0.78138516330000    0.03793778610000
H        -2.98680004660000    2.75422955480000    0.07628923240000
H        -0.54371604920000    2.44531114280000   -0.04780763970000
H         0.61901966150000   -0.73770525930000   -2.21650550690000
H         3.04360017450000   -0.88026114630000   -2.62919633470000
H         4.62678316040000    0.01365118940000   -0.95013757410000
H         3.77037902550000    0.99051065550000    1.13627191710000
H         1.92638245040000    1.98332493110000    2.35439786880000
H        -0.38190465080000   -0.02391698990000    2.34976414370000
H         0.03318908570000    1.20305039870000    3.63995422650000
