  21
        -30.95793691
 C          3.6819247434       -1.1460272480        0.1515603521
 C          2.4558229756       -1.6105559922       -0.0523778207
 C          1.2219811458       -0.8309628796       -0.0448342461
 C          1.2123247890        0.5614899231       -0.0259426857
 C          0.0001370935        1.2463817532       -0.0192891101
 C          0.0005221525        2.6616073122       -0.0080200828
 N          0.0006214773        3.8078876915        0.0029661632
 C         -1.2122529989        0.5618171160       -0.0257923882
 C         -1.2222682759       -0.8306311144       -0.0447585184
 C         -2.4563115280       -1.6099052142       -0.0526187516
 C         -3.6822597667       -1.1451676631        0.1516128994
 C         -0.0002257066       -1.5021344424       -0.0636984512
 H          4.5367764513       -1.7997984211        0.1324669396
 H          3.8885925775       -0.1085639150        0.3517433717
 H          2.3166186050       -2.6699694427       -0.2299808515
 H          2.1336199878        1.1226568636       -0.0294273607
 H         -2.1333813449        1.1232512920       -0.0294395210
 H         -2.3174069177       -2.6692126051       -0.2309415281
 H         -3.8886231851       -0.1077857794        0.3522613997
 H         -4.5372129843       -1.7987768233        0.1328628582
 H         -0.0004056251       -2.5836100399       -0.0837002569
  21
        -30.95784652
 C          3.0168850268       -2.4231145379        0.1303934478
 C          2.7027736188       -1.1448526324       -0.0377628636
 C          1.3603220315       -0.5718898308       -0.0346556778
 C          1.2246883150        0.8146743745       -0.0320485358
 C         -0.0419158708        1.3934542905       -0.0266053992
 C         -0.1670234629        2.8029831551       -0.0273591232
 N         -0.2683610357        3.9448373735       -0.0283353376
 C         -1.1866769359        0.6020749814       -0.0247588859
 C         -1.0707442754       -0.7863205786       -0.0303614500
 C         -2.2314638021       -1.6716304033       -0.0319539060
 C         -3.4957054077       -1.3149391086        0.1559930950
 C          0.2041758850       -1.3505769333       -0.0411475911
 H          4.0416230111       -2.7519873547        0.1171681766
 H          2.2799988457       -3.1907268400        0.2940899642
 H          3.4973668514       -0.4225859338       -0.1794039857
 H          2.0998249580        1.4486418014       -0.0329919951
 H         -2.1549522880        1.0774956165       -0.0315589690
 H         -1.9980022332       -2.7173702436       -0.1907315976
 H         -3.7961828964       -0.2970565861        0.3364184701
 H         -4.2885619810       -2.0427748366        0.1428567663
 H          0.2907108961       -2.4265401261       -0.0588925803
  21
        -30.95775474
 C          2.7142161979       -2.5245854520        0.1640712233
 C          2.5007024407       -1.2426070084       -0.1029226923
 C          1.2161740373       -0.5499711045       -0.0542730274
 C          1.2062809960        0.8432331240       -0.0865459903
 C          0.0000229982        1.5352064971       -0.0232336349
 C          0.0002959726        2.9498834140       -0.0449744938
 N          0.0009894556        4.0961028455       -0.0625382985
 C         -1.2063458980        0.8457171483        0.0613075362
 C         -1.2164067813       -0.5478167940        0.0718279827
 C         -2.5009563356       -1.2386404860        0.1417463668
 C         -2.7148226130       -2.5274385880       -0.0897255076
 C         -0.0001840057       -1.2258596162        0.0192285010
 H          3.7015599103       -2.9495036770        0.1092407822
 H          1.9280230267       -3.1993438275        0.4570637212
 H          3.3409760218       -0.6125140009       -0.3672930195
 H          2.1339617028        1.3938595491       -0.1495576446
 H         -2.1339568084        1.3981345578        0.1073552916
 H         -3.3407758904       -0.6014482547        0.3900368146
 H         -1.9289939356       -3.2098504035       -0.3654920492
 H         -3.7020087866       -2.9507937516       -0.0216357482
 H         -0.0003447841       -2.3033905437        0.0359941777
