  51
        -58.14146121
 C          6.6537195696       -0.5931632678        0.9090982861
 C          5.1682917904       -0.9111608219        0.7912995868
 C          4.5297263740       -0.2124104778       -0.4065054857
 C          3.0406017954       -0.5247211809       -0.5260026129
 C          2.4063144963        0.1679633237       -1.7287946349
 C          0.8974927792       -0.0926660787       -1.8240657319
 C          0.1523408582        0.4598277667       -0.6445366337
 C         -0.0341267944        1.7959475255       -0.4522899860
 C          0.3715126951        2.9411705975       -1.3136221418
 S         -0.8631174261        2.1141875071        1.0387092351
 C         -0.9633955862        0.4186931638        1.3986685579
 C         -1.6380149605       -0.0089997197        2.6571544917
 C         -0.4003158612       -0.3346794337        0.4118010964
 C         -0.3775292503       -1.8332500748        0.4260667876
 C         -1.4003805256       -2.4888505316       -0.5150325529
 C         -2.8616921802       -2.2759170053       -0.1118927977
 C         -3.4463118262       -0.9601838857       -0.6215758601
 C         -4.8852529103       -0.7532080872       -0.1557871895
 C         -5.4447010089        0.5797225856       -0.6368591216
 H          7.0881386135       -1.1007846687        1.7672714516
 H          6.8059431440        0.4772271595        1.0302323319
 H          7.1846029644       -0.9143018989        0.0153501036
 H          4.6561610480       -0.5987009420        1.7043307070
 H          5.0355499335       -1.9911075893        0.6915485460
 H          5.0401079728       -0.5255688527       -1.3209023505
 H          4.6649208402        0.8673473448       -0.3069359897
 H          2.5300469749       -0.2026353343        0.3845489124
 H          2.9086905493       -1.6059683982       -0.6181707557
 H          2.8845988351       -0.1881872733       -2.6447526501
 H          2.5852183108        1.2417361706       -1.6568664305
 H          0.7307655343       -1.1662712212       -1.9002359223
 H          0.5180699442        0.3690053903       -2.7401466623
 H          0.4344819775        2.6328607951       -2.3552998768
 H          1.3451174830        3.3309323640       -1.0115826302
 H         -0.3512564246        3.7505384563       -1.2285857276
 H         -1.6821465090        0.8228896696        3.3563966865
 H         -1.0997957966       -0.8306903221        3.1276282360
 H         -2.6585128353       -0.3381428769        2.4579675142
 H         -0.5647338449       -2.1879753337        1.4409664980
 H          0.6202088013       -2.1734846546        0.1384010942
 H         -1.1917214911       -3.5620872766       -0.5204159208
 H         -1.2592467350       -2.1202523648       -1.5325928276
 H         -2.9466857131       -2.3201470548        0.9758289071
 H         -3.4611670289       -3.0960698476       -0.5167947499
 H         -3.4187704043       -0.9568571581       -1.7141868088
 H         -2.8374029755       -0.1254042330       -0.2766150557
 H         -4.9202833667       -0.7855698062        0.9361575496
 H         -5.5102575799       -1.5685840212       -0.5284190230
 H         -4.8414490978        1.4022687885       -0.2583681588
 H         -6.4673678667        0.7155214085       -0.2922151433
 H         -5.4395054326        0.6249002202       -1.7238267381
