  53
        -62.35761321
 C          3.6653749304        5.4773673686       -0.9085616575
 C          3.7378183852        4.2137217371       -0.4987352338
 C          2.6216127937        3.3180836414       -0.3809350368
 C          2.6573504131        2.0097403453        0.0326977139
 C          1.4029001237        1.3757521042        0.0476579824
 C          1.1532247529       -0.0477263741        0.4541332475
 C          2.4047030507       -0.8211583306        0.8651357020
 C          2.0711066290       -2.2539377675        1.2879046521
 C          1.7440850983       -3.1587414046        0.1007940370
 C          1.1887911079       -4.5256672964        0.5054099662
 C         -0.1224802127       -4.4780466703        1.2959809398
 C         -1.2082765710       -3.6381845880        0.6259963194
 C         -2.5475222032       -3.7514621554        1.3533143834
 C         -3.5479355329       -2.6760416687        0.9273244091
 C         -3.9569225396       -2.7814019920       -0.5404835455
 C         -5.0599360121       -1.7948430450       -0.9264010523
 C         -4.5955864938       -0.3426479115       -0.9113512056
 C          0.3883297724        2.2183741631       -0.3636123173
 C         -1.0110235675        1.9124949934       -0.4739157700
 C         -1.9512504754        2.7642647965       -0.8764154867
 S          0.9987983131        3.7972001452       -0.7666682143
 H          4.5384922244        6.1015213946       -0.9768969135
 H          2.7246536327        5.9223575856       -1.1879651473
 H          4.6918717165        3.7821438309       -0.2218425771
 H          3.5763470406        1.5291657934        0.3158894900
 H          0.6685629156       -0.5604267554       -0.3815737146
 H          0.4478101643       -0.0527246403        1.2920835364
 H          2.8778254422       -0.3069957479        1.7047317195
 H          3.1143420308       -0.8445986619        0.0353934097
 H          1.2266368120       -2.2234931419        1.9776380453
 H          2.9206585323       -2.6778441102        1.8283929462
 H          2.6550752191       -3.3146879600       -0.4830425034
 H          1.0248390813       -2.6681868640       -0.5549959652
 H          1.9355407786       -5.0537635230        1.1035661447
 H          1.0267453509       -5.1073295499       -0.4057337857
 H          0.0639849315       -4.0893240058        2.2992681907
 H         -0.4867351118       -5.5019802081        1.4125415020
 H         -1.3213632601       -3.9618526123       -0.4101901366
 H         -0.9060146832       -2.5898119948        0.6227596817
 H         -2.3727557985       -3.6530982651        2.4281876938
 H         -2.9768140380       -4.7409556840        1.1802148597
 H         -3.1087088953       -1.6946778527        1.1170035918
 H         -4.4431906318       -2.7632643063        1.5484397341
 H         -4.3108627216       -3.7975559846       -0.7322405306
 H         -3.0894384950       -2.6055135479       -1.1790798581
 H         -5.9055035669       -1.9127771342       -0.2446305479
 H         -5.4106794893       -2.0403425812       -1.9318580963
 H         -4.3244451436       -0.0288736450        0.0935154473
 H         -5.3901820683        0.3103784131       -1.2660548803
 H         -3.7311350183       -0.2130352621       -1.5597526861
 H         -1.2838651229        0.9016843684       -0.2002575330
 H         -1.7094425028        3.7766793966       -1.1546202923
 H         -2.9853838690        2.4755168815       -0.9390653797
