  20
        -31.22512671
 C         -3.9521220232        0.8990758061       -0.0547146772
 C         -3.2223308389       -0.2101617651       -0.0633578993
 C         -1.7691185702       -0.2813226750       -0.0289506708
 C         -1.1423102152       -1.5240205806        0.1456817122
 N          0.1577028072       -1.6901047851        0.1635499709
 C          0.9498588490       -0.6266453678        0.0347783790
 C          2.3371175488       -0.9273566052       -0.0060358643
 N          3.4445820937       -1.2186986458       -0.0614004322
 C          0.4539642100        0.6842646655       -0.1095213929
 C          1.2942496930        1.8714484531       -0.2156785809
 C          2.4936668999        2.0255769446        0.3292727534
 C         -0.9314950099        0.8226758897       -0.1637251535
 H         -5.0273643099        0.8599799979       -0.0749795714
 H         -3.5176714635        1.8836275658       -0.0189396946
 H         -3.7177420232       -1.1727169065       -0.0826507465
 H         -1.7273429291       -2.4266098149        0.2680968946
 H          0.8403626330        2.6937932950       -0.7562041269
 H          2.9695140009        1.2551113127        0.9105575184
 H          3.0404493636        2.9461778140        0.2180986166
 H         -1.3486631811        1.8088865118       -0.3075213518
