31
 energy: -48.089030741272 gnorm: 0.000059493384 xtb: 6.4.1 (23d549d)
C        -4.62144062200000    2.26691442880000    0.08271837100000
C        -3.43768783770000    2.26798696000000    0.68202703500000
C        -2.40080209630000    1.31690349830000    0.36060825330000
N        -2.52752370220000    0.33684006240000   -0.58072289180000
C        -1.38594816680000   -0.29671711830000   -0.55893179100000
C        -1.10780464620000   -1.48902024460000   -1.33130674810000
C        -0.46377794960000   -2.55084530170000   -0.86920296960000
N        -0.55918545980000    0.29161552660000    0.37643912520000
C         0.80484735400000    0.09097903490000    0.68996171510000
O         1.25929282190000    0.37080751280000    1.75842992170000
O         1.42745369780000   -0.40273274050000   -0.36519852130000
C         2.85043997680000   -0.71214413610000   -0.31376133700000
C         3.12697823690000   -1.75349001080000    0.76827840560000
C         3.14498238600000   -1.28117585270000   -1.70052576360000
C         3.64805217130000    0.56635372270000   -0.06736446290000
N        -1.22729308890000    1.30913618420000    0.95222440760000
H        -5.38592406930000    2.98142074870000    0.33415581120000
H        -4.84921931640000    1.54081405440000   -0.67893633070000
H        -3.17328372870000    2.97845421000000    1.45128071680000
H        -1.55529990690000   -1.48766181390000   -2.31502082460000
H        -0.06440121590000   -2.58990439900000    0.13073985670000
H        -0.32752035630000   -3.42925986080000   -1.47592609140000
H         2.53320197730000   -2.64785794890000    0.59209268920000
H         2.88822299260000   -1.35622585920000    1.75109787850000
H         4.17872516740000   -2.02412622320000    0.74733043760000
H         2.53311436300000   -2.16137226940000   -1.87908045400000
H         4.19319875960000   -1.55399095060000   -1.77415603780000
H         2.91502713100000   -0.54237298330000   -2.46322529420000
H         3.42791338540000    0.96839361410000    0.91785516400000
H         3.39655213280000    1.31405955210000   -0.81640286090000
H         4.71066813660000    0.35003576170000   -0.12972474040000
