  21
        -34.13250932
 C         -3.8156788326        1.4768704450       -0.0000243361
 C         -2.5047089916        0.7511014130        0.0000078733
 C         -2.4656231888       -0.6410450616        0.0000076703
 C         -1.2824488936       -1.3708799963        0.0000086514
 C         -1.2489129283       -2.8669106130       -0.0000030242
 C         -0.1156222114       -0.6221070798        0.0000023457
 N          1.2235353773       -0.9591913515        0.0000000356
 C          1.9692057412        0.1847325174        0.0000008305
 S          3.5943036808        0.2691728869       -0.0000087645
 O          1.1414115105        1.2486344601        0.0000113300
 C         -0.1412351230        0.7776726009        0.0000100992
 C         -1.3212878186        1.4868595984        0.0000125739
 H         -4.6490490040        0.7801690240        0.0002989458
 H         -3.8945779849        2.1139810468       -0.8794323936
 H         -3.8943354678        2.1145297815        0.8790037470
 H         -3.3994172006       -1.1839845640        0.0000092156
 H         -2.2566461861       -3.2719684317        0.0003215129
 H         -0.7258732647       -3.2370491839        0.8814542249
 H         -0.7264563830       -3.2370381393       -0.8818134326
 H          1.6269658006       -1.8796352533       -0.0000315365
 H         -1.3256067384        2.5639240345        0.0000178352
