30
 energy: -41.323812946164 gnorm: 0.000032028514 xtb: 6.4.1 (23d549d)
C        -1.73669077080000   -1.02469575420000    3.17968887620000
C        -1.10146919280000   -0.94190303980000    2.01831379510000
C        -1.61399550250000   -0.26704099740000    0.82694607190000
C        -2.98369067140000   -0.19683177780000    0.57740935650000
C        -3.47275973420000    0.40498346130000   -0.56549351930000
C        -2.59534933210000    0.94630296880000   -1.49107806020000
C        -1.23360887770000    0.87950274900000   -1.26405946490000
C        -0.72864013370000    0.27951723630000   -0.11505882160000
C         0.72860812540000    0.27983046450000    0.11494810660000
C         1.23347054440000    0.88089554020000    1.26342887290000
C         2.59521159640000    0.94832835970000    1.49027172100000
C         3.47272575360000    0.40657480940000    0.56503995620000
C         2.98376103130000   -0.19632472810000   -0.57733791560000
C         1.61406930420000   -0.26719509060000   -0.82668573940000
C         1.10166335730000   -0.94319284190000   -2.01746582230000
C         1.73669556580000   -1.02643634540000   -3.17890977360000
H        -1.30868394290000   -1.54375109930000    4.02022381380000
H        -2.69716714570000   -0.56537230130000    3.34482209670000
H        -0.11930759220000   -1.38614620740000    1.91421630810000
H        -3.66980784910000   -0.64193682090000    1.28244633320000
H        -4.53810589080000    0.44656124930000   -0.73939294770000
H        -2.97110973400000    1.41648437760000   -2.38782089550000
H        -0.54332219830000    1.30638430180000   -1.97786172780000
H         0.54310539310000    1.30812426690000    1.97694770370000
H         2.97089553680000    1.41935298300000    2.38660414030000
H         4.53807358440000    0.44866675470000    0.73880606500000
H         3.66995876470000   -0.64175805540000   -1.28209065880000
H         0.11977282160000   -1.38791375240000   -1.91284616140000
H         2.69687406770000   -0.56667095520000   -3.34454763250000
H         1.30881151950000   -1.54630952220000   -4.01900163370000
