  23
        -31.18339915
 C         -2.1437704071       -2.1481048747       -0.2125455220
 C         -2.0712181923       -0.8773851793        0.1671280831
 C         -0.8940197309       -0.0434391103        0.1000776692
 C         -0.8793388858        1.3654230016       -0.0186030448
 C         -2.0414759400        2.2899758698       -0.0841440232
 N          0.3632967466        1.8083052842       -0.0810236113
 N          1.1614475057        0.7439834381       -0.0144065122
 C          2.5799549915        0.9472722292        0.0152376196
 C          0.4573704921       -0.4112708428        0.1006812162
 C          1.0252263998       -1.7252381727        0.2872162121
 C          2.1713539926       -2.1797953405       -0.2080332650
 H         -3.0605007088       -2.7070818916       -0.1300026709
 H         -1.3024874886       -2.6680427897       -0.6382094880
 H         -2.9581400785       -0.3788378290        0.5396140357
 H         -2.6562339277        2.1935588461        0.8103438446
 H         -2.6618661923        2.0611533116       -0.9499413020
 H         -1.6830396795        3.3123208059       -0.1618956602
 H          2.7565971684        1.9766322180        0.3236666445
 H          3.0205340949        0.7993200206       -0.9739339153
 H          3.0445955337        0.2611882772        0.7236612433
 H          0.4071533131       -2.3804651409        0.8893858478
 H          2.8005181872       -1.5971701825       -0.8576141402
 H          2.5053185635       -3.1821155046       -0.0008462398
