  19
        -35.16756788
 C          4.7325280574       -0.4021636280       -0.0165635202
 C          3.6884039736        0.4187212546       -0.0027615850
 C          2.2870100132        0.0307953261        0.0038834566
 C          1.8376539845       -1.2926228399        0.0280701672
 C          0.4832849893       -1.5526744626        0.0319609424
 C         -0.4153443674       -0.4805550752        0.0118292452
 C         -1.8467703368       -0.7312789474        0.0157748633
 C         -2.7911238277        0.2002938194       -0.0038922467
 F         -2.6390951503        1.5073325509       -0.0305675688
 F         -4.0909373877       -0.0896606443        0.0009828681
 N          0.0058580218        0.7830056697       -0.0105350590
 C          1.2963901076        1.0213242502       -0.0138834515
 H          5.7400607325       -0.0239403366       -0.0216699650
 H          4.6327368030       -1.4741347689       -0.0246329141
 H          3.8562565964        1.4886543007        0.0017811418
 H          2.5417633195       -2.1107523968        0.0453335814
 H          0.1165564037       -2.5677253026        0.0508595027
 H         -2.1749711893       -1.7588106053        0.0362800650
 H          1.5703784965        2.0690624478       -0.0323800880
