  23
        -44.95118028
 C          3.5472360644        0.9650291116       -0.4431363486
 C          2.4915505707        1.5587033651        0.1068878737
 C          1.1433238765        1.0340140176        0.1180602351
 S         -0.1694360874        2.1605663539        0.0892482070
 C         -1.3422732163        0.8862009383       -0.0103908330
 C         -2.7451476389        1.1952064446       -0.0819374517
 C         -3.2394595994        2.4297348427       -0.0414206815
 C         -0.7352695284       -0.3570375774       -0.0429597337
 C         -1.5691579948       -1.6040742588       -0.1065243063
 O         -2.6641086295       -1.6458821309        0.3944355994
 O         -1.0877608768       -2.6405871719       -0.7741151637
 C          0.6867817165       -0.2695426232        0.0496779276
 C          1.5984485809       -1.4354972670        0.1279007347
 O          1.5243896001       -2.3816784232       -0.6207890573
 O          2.5220680211       -1.4106225822        1.0912581167
 H          4.5147731659        1.4344748358       -0.4323908813
 H          3.4857114835        0.0074937823       -0.9324878175
 H          2.5891705656        2.5495067058        0.5317871109
 H         -3.3978545306        0.3377997263       -0.1551655733
 H         -2.6047497611        3.2975543208        0.0511248299
 H         -4.2977836657        2.6099245091       -0.0971856381
 H         -0.1304687245       -2.5892382996       -0.9995598982
 H          2.5084279174       -0.5967701331        1.6130011007
