  20
        -34.89414744
 C         -1.7151216407        3.1941463828        0.0974987117
 C         -0.9350279369        2.2059025274       -0.3178711645
 C         -1.2255806523        0.7843542551       -0.1187700768
 C         -2.5377058394        0.3268975712       -0.2069904758
 C         -2.8398641275       -1.0145604782       -0.0717717660
 C         -1.8243525763       -1.9290348557        0.1544897862
 C         -0.5158295058       -1.4958674717        0.2500907568
 C         -0.1963719221       -0.1457487203        0.1168726293
 C          1.1765596513        0.3235523995        0.2788783070
 C          2.2820682841       -0.3665282188        0.0486670530
 F          2.3850748767       -1.6091350433       -0.4089467086
 F          3.5060778367        0.1265610013        0.2366062865
 H         -1.4673117178        4.2256410815       -0.0856057767
 H         -2.6205239421        3.0123700967        0.6523328251
 H         -0.0211467315        2.4340502832       -0.8510020809
 H         -3.3256333738        1.0369677977       -0.4087258900
 H         -3.8642162803       -1.3475216585       -0.1480368635
 H         -2.0511881092       -2.9791032877        0.2604367469
 H          0.2649004831       -2.2127415620        0.4489038672
 H          1.3219318217        1.3353077176        0.6263148069
