  22
        -34.10082012
 C          3.6430040413       -0.5236638965        0.4029673493
 C          2.7002755374        0.2124657574       -0.1703194941
 C          1.2648111524       -0.0624094329       -0.0979601660
 C          0.8115546034       -1.3765971290       -0.0588745550
 C         -0.5433710024       -1.6314080455       -0.0316204527
 F         -0.9718004106       -2.9175701005        0.0003962378
 C         -1.4748380132       -0.6150630113       -0.0622882137
 C         -1.0493914914        0.7083685438       -0.1014321137
 C         -2.0331815149        1.7890352851       -0.1774317629
 C         -3.2300277935        1.7660250093        0.3937920895
 C          0.3307550454        0.9926801573       -0.0945534677
 N          0.7670933011        2.3029377498       -0.0999587297
 H          4.6879051499       -0.2878029313        0.2956348345
 H          3.4076997210       -1.3810091019        1.0105394974
 H          2.9855875478        1.0776146470       -0.7565609357
 H          1.5108511618       -2.1966029051       -0.0759093785
 H         -2.5261324919       -0.8519559159       -0.0818417981
 H         -1.7413511393        2.6517611588       -0.7641603731
 H         -3.5565890653        0.9399784323        1.0027140614
 H         -3.9242787505        2.5815439003        0.2846802028
 H          0.1058704317        2.9911942138        0.2183424497
 H          1.7079480101        2.4577698201        0.2210494135
