22
 energy: -34.100820117637 gnorm: 0.000174972010 xtb: 6.4.1 (23d549d)
C         3.64300404130000   -0.52366389650000    0.40296734930000
C         2.70027553740000    0.21246575740000   -0.17031949410000
C         1.26481115240000   -0.06240943290000   -0.09796016600000
C         0.81155460340000   -1.37659712900000   -0.05887455500000
C        -0.54337100240000   -1.63140804550000   -0.03162045270000
F        -0.97180041060000   -2.91757010050000    0.00039623780000
C        -1.47483801320000   -0.61506301130000   -0.06228821370000
C        -1.04939149140000    0.70836854380000   -0.10143211370000
C        -2.03318151490000    1.78903528510000   -0.17743176290000
C        -3.23002779350000    1.76602500930000    0.39379208950000
C         0.33075504540000    0.99268015730000   -0.09455346770000
N         0.76709330110000    2.30293774980000   -0.09995872970000
H         4.68790514990000   -0.28780293130000    0.29563483450000
H         3.40769972100000   -1.38100910190000    1.01053949740000
H         2.98558754780000    1.07761464700000   -0.75656093570000
H         1.51085116180000   -2.19660290510000   -0.07590937850000
H        -2.52613249190000   -0.85195591590000   -0.08184179810000
H        -1.74135113930000    2.65176115880000   -0.76416037310000
H        -3.55658906530000    0.93997843230000    1.00271406140000
H        -3.92427875050000    2.58154390030000    0.28468020280000
H         0.10587043170000    2.99119421380000    0.21834244970000
H         1.70794801010000    2.45776982010000    0.22104941350000
