  22
        -29.87060436
 C          3.2000664030       -1.0562637866        0.3566678472
 C          2.6303240012       -0.0174933583       -0.2431291084
 C          1.2327335630        0.3969169307       -0.1221996832
 C          0.9621606811        1.7628177969       -0.0855609309
 C         -0.3259547597        2.2372864616        0.0618633455
 C         -1.3723618943        1.3402387779        0.1683972052
 C         -1.1514957769       -0.0304505421        0.1054319672
 C         -2.2687806746       -0.9649355161        0.2459439080
 C         -3.5005111857       -0.7481872896       -0.1960674233
 C          0.1619337718       -0.5144150803       -0.0611180443
 N          0.3834847997       -1.8741878417       -0.1672369338
 H          4.2484069938       -1.2702324357        0.2291584238
 H          2.6603973578       -1.7006530487        1.0300055848
 H          3.2427898520        0.6400453865       -0.8501878104
 H          1.7878130733        2.4568317403       -0.1558036152
 H         -0.5132811306        3.2996676843        0.1030357941
 H         -2.3789241990        1.7007240332        0.3179748532
 H         -2.0476630598       -1.8879135514        0.7691089699
 H         -3.7637872421        0.1446670602       -0.7381159086
 H         -4.2918460320       -1.4619569798       -0.0410862164
 H         -0.3963873455       -2.4140943981       -0.5065790122
 H          1.2699484014       -2.1278281704       -0.5770407349
  22
        -29.87051888
 C          3.6263381733       -0.0206030257        0.4280084180
 C          2.5392308595       -0.4536779781       -0.1965941915
 C          1.2104983279        0.1482223687       -0.0811524613
 C          1.0745259506        1.5242573802        0.0698145431
 C         -0.1722269278        2.1159729444        0.1387572084
 C         -1.3060455030        1.3326291316        0.0381671375
 C         -1.2161036037       -0.0470983206       -0.1133831567
 C         -2.4280654876       -0.8534417251       -0.2624384617
 C         -3.5858256282       -0.6019185848        0.3340250143
 C          0.0544507068       -0.6522121680       -0.1499762181
 N          0.1664937926       -2.0255452000       -0.2658065696
 H          4.5860589355       -0.4875605742        0.2846278441
 H          3.5980491218        0.8093390674        1.1139937080
 H          2.6157383075       -1.3048212578       -0.8633134382
 H          1.9640261002        2.1348904291        0.1080870381
 H         -0.2598636879        3.1863301802        0.2496187103
 H         -2.2824895453        1.7929894242        0.0516210766
 H         -2.3505227773       -1.7035455588       -0.9303827765
 H         -3.7078518735        0.2195375512        1.0199719757
 H         -4.4546505679       -1.2157248077        0.1665109137
 H         -0.6410074957       -2.5580238469        0.0119170167
 H          1.0405444727       -2.4229390804        0.0355683765
  22
        -29.86998161
 C          3.6512424488        0.0073319409        0.2606376026
 C          2.5280510049       -0.4551906476       -0.2717717998
 C          1.2055023690        0.1436812084       -0.0850391051
 C          1.0700959158        1.5242536813        0.0020350840
 C         -0.1741337666        2.1134050050        0.1270773323
 C         -1.3028660112        1.3190814407        0.1700228721
 C         -1.2125078968       -0.0683553644        0.0992929553
 C         -2.4261099579       -0.8795701410        0.1966084133
 C         -3.6069903230       -0.5404939619       -0.3021618996
 C          0.0548308503       -0.6675219991       -0.0288040277
 N          0.1750617728       -2.0353209026       -0.1704311008
 H          4.6032078968       -0.4582062041        0.0689611677
 H          3.6619553921        0.8614998639        0.9168380766
 H          2.5648604507       -1.3295322072       -0.9109398739
 H          1.9550868196        2.1399181885       -0.0556494957
 H         -0.2627477335        3.1875862224        0.1893714303
 H         -2.2761242454        1.7713315051        0.2875794970
 H         -2.3404556881       -1.8164371523        0.7378849190
 H         -3.7466751174        0.3645094746       -0.8687015520
 H         -4.4759353738       -1.1637953212       -0.1761608039
 H         -0.6325785407       -2.5844890658        0.0715593343
 H          1.0535121087       -2.4395819435        0.1069141093
  22
        -29.86983002
 C          3.5228499368       -0.1971640173       -0.5109776245
 C          2.4263633930       -0.5637896831        0.1380990085
 C          1.1521600923        0.1543518290        0.0984395489
 C          1.1496628552        1.5444418293        0.0463973903
 C         -0.0321538623        2.2594318406        0.0680171879
 C         -1.2335172421        1.5806836367        0.1279307934
 C         -1.2797613734        0.1897508797        0.1370958859
 C         -2.5993913551       -0.4433776489        0.1564571532
 C         -2.9663872248       -1.5309513506       -0.5107855941
 C         -0.0742654992       -0.5394015743        0.1413198895
 N         -0.0966649612       -1.9176494538        0.1341547348
 H          4.4442130162       -0.7475701176       -0.4238629214
 H          3.5372123258        0.6573597945       -1.1660248443
 H          2.4655920434       -1.4491767173        0.7646377193
 H          2.0946964920        2.0660133924        0.0255608281
 H         -0.0166245878        3.3386673503        0.0482953815
 H         -2.1637631846        2.1307913138        0.1474460385
 H         -3.3407955356        0.0866901473        0.7444823321
 H         -2.2971256173       -2.0563833560       -1.1707702413
 H         -3.9747515162       -1.9069561600       -0.4553939276
 H         -0.9409539060       -2.3364218647        0.4937916556
 H          0.7543793561       -2.3772810912        0.4145974569
  22
        -29.86979058
 C          3.6225274102        0.0107335477       -0.4246416761
 C          2.5437882316       -0.4576629997        0.1881953912
 C          1.2108888632        0.1389524574        0.1100123270
 C          1.0742175680        1.5214635279        0.0409978592
 C         -0.1719268093        2.1167344571        0.0022316650
 C         -1.3054694700        1.3281081311        0.0450904006
 C         -1.2170161494       -0.0583541842        0.1140863626
 C         -2.4358282140       -0.8622811803        0.1964821897
 C         -3.5787824795       -0.5733846683       -0.4108459141
 C          0.0544083517       -0.6664358321        0.1311133777
 N          0.1655938328       -2.0345504968        0.0409703491
 H          4.5872778127       -0.4531263469       -0.3083049053
 H          3.5793672818        0.8657349139       -1.0776673419
 H          2.6429200875       -1.3379652847        0.8154156024
 H          1.9640087623        2.1329307822        0.0443211969
 H         -0.2593592577        3.1918451004       -0.0429861981
 H         -2.2822483557        1.7879755077        0.0516713068
 H         -2.3888832095       -1.7479356090        0.8222340445
 H         -3.6772796018        0.2781931123       -1.0623406480
 H         -4.4554105592       -1.1871521649       -0.2914116171
 H         -0.6428706068       -2.5807215854        0.2847221261
 H          1.0526526167       -2.4426023577        0.2817160883
  22
        -29.86837109
 C          3.0837287391       -1.0941874223        0.4003766301
 C          2.5131901034       -0.1817436302       -0.3733216258
 C          1.1677122611        0.3816545176       -0.1816597844
 C          1.0485571444        1.7642611120       -0.1272176534
 C         -0.1695901158        2.3656369137        0.1310159807
 C         -1.2881285829        1.5752512701        0.3034881259
 C         -1.2248019767        0.1896941382        0.1789804095
 C         -2.4746498837       -0.5590172325        0.3155330993
 C         -2.8439724213       -1.6246737041       -0.3849257692
 C          0.0216368995       -0.4250238906       -0.0517689987
 N          0.1115710056       -1.7892199161       -0.2127909244
 H          4.0889510445       -1.4386646581        0.2238751271
 H          2.5865832413       -1.5113951938        1.2624161921
 H          3.0791203576        0.2513860454       -1.1900278452
 H          1.9355998105        2.3688200350       -0.2535141004
 H         -0.2434950414        3.4402469237        0.2005166121
 H         -2.2453748372        2.0336390637        0.5084610187
 H         -3.1684830794       -0.1402250056        1.0365302492
 H         -2.2332604078       -2.0417390980       -1.1673398951
 H         -3.8033805218       -2.0900181691       -0.2290269584
 H         -0.6062865716       -2.3374269562        0.2331681804
 H          1.0415190956       -2.1733457123       -0.1764246200
