21
 energy: -30.511778819683 gnorm: 0.000141601495 xtb: 6.4.1 (23d549d)
C         3.34325975220000   -1.55390200310000   -0.07688265680000
C         2.79022473340000   -0.35194371130000    0.02731875840000
C         1.36459889190000   -0.04235132000000    0.02309394120000
C         0.97419190920000    1.29683399620000    0.00356905380000
C        -0.36947255720000    1.64107345660000   -0.00336793180000
O        -0.77988007240000    2.94017030970000   -0.02197196890000
C        -1.34299360040000    0.65183103150000    0.01133270200000
C        -0.97762469710000   -0.69153540430000    0.03389746570000
C        -1.96022674320000   -1.77032830750000    0.05188676520000
C        -3.27596043950000   -1.64714094120000   -0.07050544500000
C         0.37635825430000   -1.02160821760000    0.04283680540000
H         4.41234915010000   -1.68019507580000   -0.06657909240000
H         2.76474401480000   -2.45550226630000   -0.18056415470000
H         3.43706917620000    0.51297155090000    0.11650776680000
H         1.72686629640000    2.07566094860000   -0.00814555140000
H        -0.01260204630000    3.52476762990000   -0.02882242440000
H        -2.37615720390000    0.95589981920000    0.01333730830000
H        -1.53604450770000   -2.76041927930000    0.16887051720000
H        -3.76252454560000   -0.69610374510000   -0.20088367730000
H        -3.92267692150000   -2.50763402680000   -0.04862115010000
H         0.65721081340000   -2.06293103810000    0.06911997370000
