  32
        -53.29958787
 C         -3.0547536305       -3.0956620588        0.9728799152
 C         -2.7499652236       -2.5076728287       -0.4045027268
 N         -1.9785930324       -1.2977878773       -0.3064079656
 C         -2.4933955294       -0.0305123004       -0.1466695113
 C         -1.4308256188        0.8947939335       -0.0177716448
 C         -1.6990383008        2.2475109808        0.1425275889
 C         -3.0161896871        2.6597209858        0.1748664294
 C         -4.0573341673        1.7423895033        0.0510993858
 C         -3.8149725541        0.3915432592       -0.1095205110
 C         -0.6115928763       -1.2226392967       -0.2533979544
 C         -0.2180934529        0.1287123506       -0.0862920266
 C          1.1211607913        0.4713023537       -0.0160559349
 C          2.0820962444       -0.5326443053       -0.1098636963
 C          3.5101762516       -0.2742192536       -0.0462970622
 C          4.1370256276        0.8837673964        0.1006331705
 F          3.6073168887        2.0973176296        0.2267011869
 F          5.4676352606        0.9910099223        0.1442980867
 C          1.6715144213       -1.8677909847       -0.2719746447
 C          0.3440321954       -2.2275775693       -0.3437386840
 H         -3.6398398004       -4.0058173288        0.8719123842
 H         -3.6166011970       -2.3814873296        1.5703568999
 H         -2.1299078934       -3.3287945724        1.4954590005
 H         -3.6816421875       -2.2822529293       -0.9304983318
 H         -2.1887472695       -3.2290150470       -1.0046961203
 H         -0.8914958201        2.9569176863        0.2402414357
 H         -3.2483552578        3.7067807554        0.2994542432
 H         -5.0777915249        2.0949842691        0.0834990671
 H         -4.6347441092       -0.3053847291       -0.1995649599
 H          1.4011568471        1.5035423106        0.1106524376
 H          4.1601664002       -1.1336354357       -0.1291812099
 H          2.4269772118       -2.6369138396       -0.3400553177
 H          0.0660929139       -3.2638091485       -0.4639367090
