  23
        -44.94672176
 C          3.3752168357        1.5409864606        0.7763684010
 C          2.5535724510        1.4385601145       -0.2605717920
 C          1.1817779035        0.9321885990       -0.1780802978
 S         -0.0895355278        2.0866575184       -0.3488421035
 C         -1.3030075111        0.8629779289       -0.1229233844
 C         -2.6961731488        1.2254390535       -0.1407814238
 C         -3.1403122177        2.4691454297       -0.2970361526
 C         -0.7395201608       -0.3877435506        0.0200994472
 C         -1.6333772138       -1.5642761416        0.3132594528
 O         -2.6344015953       -1.4157019071        0.9684241240
 O         -1.3185180131       -2.7391437136       -0.1953285754
 C          0.6962864452       -0.3498670024       -0.0212594941
 C          1.5802790349       -1.5379870299       -0.0629146775
 O          1.2362993846       -2.5856145372       -0.5668749338
 O          2.8086010692       -1.4260996716        0.4303413602
 H          4.3624906167        1.9551348458        0.6705074929
 H          3.0818253818        1.2591734467        1.7769428830
 H          2.8543626753        1.8044191708       -1.2347825521
 H         -3.3840679296        0.4054015384        0.0015607425
 H         -2.4698730738        3.3059054171       -0.4198185081
 H         -4.1923794866        2.6898908358       -0.3041783667
 H         -0.3969002928       -2.7943497405       -0.5543745291
 H          3.0251250010       -0.5317097597        0.7438327569
