  24
        -34.12262176
 C          4.0057450675       -1.1089788432       -0.0600555045
 C          3.3938773191        0.0549623984        0.1246933286
 C          1.9608311300        0.3071830383        0.0581370986
 C          1.4696843113        1.5549930999        0.4450553118
 C          0.1193617764        1.8271660763        0.4090232380
 C         -0.8010551216        0.8719394183       -0.0206602331
 C         -2.2329656750        1.1699370683       -0.0288399753
 C         -2.7494269980        2.3634214255       -0.2892346939
 C         -0.3141551137       -0.3778065133       -0.4281301427
 C         -1.2582425699       -1.4426725546       -0.9431196435
 C         -1.9985931931       -2.0238880407        0.1501384509
 N         -2.5737730825       -2.4774236682        1.0277644688
 C          1.0411814672       -0.6452053154       -0.3813245702
 H          5.0759692956       -1.1956497289        0.0153849992
 H          3.4767164840       -2.0195101616       -0.2837505562
 H          3.9901487696        0.9272036334        0.3642855922
 H          2.1588532841        2.3129675253        0.7892636448
 H         -0.2415256608        2.7892137208        0.7401190765
 H         -2.8919443264        0.3424890518        0.2021339086
 H         -2.1347281448        3.2097009831       -0.5479001418
 H         -3.8120696860        2.5341959406       -0.2702240447
 H         -0.6967070637       -2.2407026478       -1.4365342340
 H         -1.9676686061       -1.0184812757       -1.6600081011
 H          1.3947365498       -1.6133950570       -0.7038933409
