  24
        -45.67213920
 C         -5.9304722779       -1.3664307653        0.0217837495
 C         -5.4888983113       -0.1112584282        0.0138051970
 C         -4.1066458163        0.2763922610        0.0043155029
 C         -3.6057661112        1.5561418346        0.0011872945
 C         -2.2085703051        1.6127633582       -0.0060705597
 C         -1.6164816964        0.3715412683       -0.0092543677
 C         -0.2280236930        0.0581915000       -0.0133084136
 C          0.3650514570       -1.1836409639       -0.0222630278
 C          1.7620260664       -1.1363557426       -0.0193553354
 C          2.2616246330        0.1442121297       -0.0079437591
 C          3.6162593504        0.6133940209        0.0014656434
 C          4.7087393854       -0.1435126022        0.0085971861
 F          4.7574992287       -1.4712174368        0.0073026196
 F          5.9451975360        0.3461990875        0.0185288016
 S          0.9730313638        1.3146468053       -0.0022599116
 S         -2.8157260715       -0.8896114512       -0.0032502872
 H         -6.9807910007       -1.5965888556        0.0294534814
 H         -5.2485461371       -2.2009022660        0.0211132100
 H         -6.1876433089        0.7158817391        0.0149077907
 H         -4.2367538744        2.4273612864        0.0048154413
 H         -1.6390362333        2.5255704114       -0.0088378691
 H         -0.2065858871       -2.0946660437       -0.0304733853
 H          2.3847637750       -2.0117439623       -0.0252299566
 H          3.7712537155        1.6815157999        0.0048569326
