20
 energy: -39.125938654704 gnorm: 0.000084134088 xtb: 6.4.1 (23d549d)
C        -2.80249971090000    3.28494961750000   -0.08366115280000
C        -2.99279148500000    1.98011086620000    0.06713645870000
C        -1.96726356000000    0.94234743310000    0.04120137190000
C        -2.36903472980000   -0.39408639840000    0.02289880700000
C        -1.41009034750000   -1.38660331000000   -0.00758854700000
F        -1.81112091990000   -2.67381641050000   -0.02955573240000
C        -0.05603228540000   -1.11642177470000   -0.01408723320000
C         0.35795911630000    0.21649857950000    0.01188641020000
C         1.75861112320000    0.61080471820000    0.01365303810000
C         2.83214338520000   -0.16578326570000   -0.00336560680000
F         2.88297606810000   -1.48983558410000   -0.02569792700000
F         4.07287426100000    0.31390779080000    0.00045109860000
C        -0.60369912750000    1.22533750060000    0.03874548940000
H        -3.62755435160000    3.97532224990000   -0.05393809510000
H        -1.83203292220000    3.72011384350000   -0.24924306460000
H        -3.99985515790000    1.60994544670000    0.21207574650000
H        -3.41413844740000   -0.66201816500000    0.02722436260000
H         0.64212158390000   -1.93543825330000   -0.03624741420000
H         1.96104115550000    1.67175966100000    0.03139667320000
H        -0.27574326220000    2.25228663450000    0.06712204670000
