24
 energy: -37.214432158867 gnorm: 0.000033443646 xtb: 6.4.1 (23d549d)
C         5.13665332110000    1.10970277610000   -0.00640408200000
C         4.60989626830000   -0.11228628950000    0.00136978510000
C         3.20493880420000   -0.40546227700000    0.00218501220000
C         2.61732250400000   -1.64716405840000    0.00882747180000
C         1.21900652440000   -1.60832961280000    0.00813440410000
C         0.71239609490000   -0.33032988690000    0.00096472370000
C        -0.65117650140000    0.07777895770000   -0.00123306790000
C        -1.15844956760000    1.35650025920000   -0.00915383690000
C        -2.55581092500000    1.40095268250000   -0.00860057490000
C        -3.14611253650000    0.16002536860000   -0.00037158340000
C        -4.53593560020000   -0.20566771390000    0.00277183090000
C        -5.55620025080000    0.64982974830000   -0.00177704260000
S        -1.93709101880000   -1.09253138910000    0.00685880780000
S         1.99518925420000    0.84622978290000   -0.00525318330000
H         6.20034157440000    1.26758102640000   -0.00650764330000
H         4.51318892540000    1.98864363440000   -0.01287070900000
H         5.25086425990000   -0.98512600940000    0.00773742700000
H         3.18710835820000   -2.55977454050000    0.01409829860000
H         0.58871852000000   -2.48028404890000    0.01277805830000
H        -0.52581840480000    2.22682325930000   -0.01508317770000
H        -3.11614268300000    2.31810272940000   -0.01414061200000
H        -4.72785200450000   -1.27089904800000    0.00949570190000
H        -5.41085453360000    1.71600593980000   -0.00837100910000
H        -6.57452460680000    0.30390870080000    0.00096105050000
