  23
        -38.66375793
 C         -3.1487318343       -2.8214460946       -0.0023920894
 C         -3.0666487051       -1.4944512328       -0.0004007961
 C         -1.8356123074       -0.7471075128       -0.0000868520
 C         -0.5180361078       -1.1236950239       -0.0013193929
 C          0.2517359106        0.0681753786       -0.0007320806
 C          1.7150527806        0.0795189639       -0.0023854354
 O          2.4393725474        1.0467757577       -0.0090591425
 O          2.1987045957       -1.1767669872        0.0044962963
 C          3.6116748913       -1.2910433669        0.0026860713
 C         -0.6673479088        1.1172777996        0.0010496619
 C         -0.6054799732        2.5560661250        0.0036450300
 C          0.4875983395        3.3142419330        0.0030978176
 O         -1.9126262432        0.6054532470        0.0015299503
 H         -4.0997399516       -3.3233100657       -0.0026273082
 H         -2.2718284494       -3.4447996693       -0.0038090055
 H         -3.9594277708       -0.8838762615        0.0009221746
 H         -0.1256339730       -2.1183909244       -0.0026451653
 H          3.8304136073       -2.3556519356        0.0209341653
 H          4.0349793069       -0.7968084296        0.8799374148
 H          4.0300056433       -0.8285728895       -0.8940846033
 H         -1.5897520519        3.0092936818        0.0062565038
 H          1.4740194866        2.8878889544        0.0000365515
 H          0.4087764275        4.3878285522        0.0055431297
