  80
        -93.64170874
 C         -8.2322753839        5.0730115722       -0.3003421522
 C         -7.0825694293        5.6697987329       -1.1040227104
 C         -5.7237414062        5.0595175711       -0.7583208840
 C         -5.5885521417        3.6000523431       -1.1872607235
 C         -4.1910918441        3.0564283474       -0.8979792102
 C         -3.9662061073        1.6412078309       -1.4316684388
 C         -4.8772457168        0.5732803189       -0.8248231283
 C         -4.7060338883        0.4357553703        0.6874643901
 C         -5.3335267318       -0.8433300060        1.2461731060
 C         -4.5340164410       -2.1200600345        0.9563838414
 O         -3.3264640015       -2.1745377512        1.6845169020
 C         -2.1827195549       -1.5901506999        1.2018917002
 C         -1.9008173509       -1.3568264666       -0.1387330365
 C         -0.7018777537       -0.7955862694       -0.5412869859
 C         -0.4147176668       -0.5259111915       -1.9866185594
 C          0.2587884861       -0.4692923881        0.4225446167
 O          1.4052664610        0.1047112848       -0.0591822962
 C          2.5338788185        0.2158491206        0.7768544606
 C          3.1939102313       -1.1319680090        1.0850966409
 C          3.5276996236       -1.9360484867       -0.1729315048
 C          4.5120667122       -1.2629003329       -1.1299903004
 C          5.8784957288       -0.9876435893       -0.5058272714
 C          6.8715004851       -0.4682618910       -1.5434155321
 C          8.2055852380       -0.0242507524       -0.9409002109
 C          8.9907813728       -1.1251180056       -0.2259360745
 C          9.3964514111       -2.2785305837       -1.1406452648
 C         10.2996014778       -3.2728697845       -0.4207267259
 C         -0.0151774503       -0.7143968048        1.7612954227
 C         -1.2200210085       -1.2670107625        2.1643479518
 C         -1.5074949129       -1.5292028723        3.6107591073
 H         -9.1606620439        5.5929651558       -0.5263325258
 H         -8.0386949112        5.1659596675        0.7663063014
 H         -8.3694598030        4.0207784729       -0.5352589800
 H         -7.0405183351        6.7446129484       -0.9110468284
 H         -7.2768932661        5.5341166944       -2.1705635345
 H         -5.5588781822        5.1357058137        0.3192624038
 H         -4.9428012478        5.6439400696       -1.2518704559
 H         -5.7921868550        3.5195812977       -2.2580980148
 H         -6.3278782810        2.9989102937       -0.6583128902
 H         -4.0082972556        3.0770363082        0.1776708273
 H         -3.4540604332        3.7157488687       -1.3642433442
 H         -2.9284757330        1.3584614054       -1.2380748523
 H         -4.1113216049        1.6480112637       -2.5153036276
 H         -4.6413055222       -0.3770608356       -1.3073610047
 H         -5.9212447709        0.7952086964       -1.0541728878
 H         -5.1761836993        1.2896139991        1.1789651658
 H         -3.6437119234        0.4556738725        0.9379464542
 H         -6.3380094213       -0.9689649520        0.8356374958
 H         -5.4212037928       -0.7529811311        2.3310851619
 H         -4.3704365075       -2.2449856103       -0.1172272044
 H         -5.1071091713       -2.9833752860        1.3110013064
 H         -2.6172801993       -1.6108497430       -0.9041320957
 H         -1.2291926239       -0.8708090159       -2.6182238125
 H          0.5063441052       -1.0236985619       -2.2859640033
 H         -0.2690421157        0.5417992854       -2.1453508690
 H          2.2836426337        0.7352237443        1.7116596841
 H          3.2224317999        0.8519593221        0.2150639252
 H          2.5149165049       -1.7306546535        1.6960316734
 H          4.0948487184       -0.9449657206        1.6705255449
 H          2.5974966028       -2.1300630403       -0.7116074047
 H          3.9366812949       -2.9008091951        0.1375473604
 H          4.0836059073       -0.3312583697       -1.5028065650
 H          4.6480952864       -1.9222228115       -1.9914508029
 H          6.2556019057       -1.9109878909       -0.0625655212
 H          5.7818602311       -0.2465445867        0.2900687704
 H          6.4268051648        0.3907723745       -2.0531287527
 H          7.0447872887       -1.2368386290       -2.2985296352
 H          8.0159829061        0.7830345694       -0.2284297609
 H          8.8274200782        0.3845817326       -1.7415896600
 H          8.4056376163       -1.5140158323        0.6092683018
 H          9.8960049698       -0.6780450804        0.1937625148
 H          9.9189459972       -1.8793834884       -2.0132672320
 H          8.5059828836       -2.8003084027       -1.4946149645
 H         11.2121261263       -2.7861827494       -0.0826247597
 H         10.5728749995       -4.0921131548       -1.0819816828
 H          9.7929677280       -3.6880286716        0.4481767548
 H          0.7057082152       -0.4652620467        2.5247876640
 H         -0.7203472758       -1.1292338139        4.2446355822
 H         -1.5945194681       -2.6006511527        3.7859528307
 H         -2.4581316695       -1.0783401316        3.8903366511
