20
 energy: -34.894248861664 gnorm: 0.000063151326 xtb: 6.4.1 (23d549d)
C         4.11033058660000   -0.13606286170000    0.03842758970000
C         3.08516455900000    0.70812411940000    0.01185778380000
C         1.67318510790000    0.35544350220000    0.00055819990000
C         0.71897440090000    1.37314727400000   -0.01028541270000
C        -0.62818012360000    1.08060689070000   -0.01808008640000
F        -1.47639603080000    2.12825608350000   -0.03694623420000
C        -1.12857638820000   -0.22587282710000   -0.01715537670000
C        -2.53162396120000   -0.61339313650000   -0.02840637600000
C        -3.58838103470000    0.18182755650000    0.10017887490000
C        -0.13768531780000   -1.21796620830000   -0.01305797280000
F        -0.52554485270000   -2.51129083910000   -0.01559204430000
C         1.21403220640000   -0.96215517280000   -0.00224334320000
H         5.12552157460000    0.22085270390000    0.04558492820000
H         3.98727658680000   -1.20504445890000    0.05482819540000
H         3.28081340700000    1.77274805010000   -0.00173541140000
H         1.02035879090000    2.40951533750000   -0.01335755030000
H        -2.68746752740000   -1.67823764430000   -0.14466976400000
H        -3.51835530630000    1.24605264170000    0.23233561340000
H        -4.58354955870000   -0.22881188040000    0.07867901160000
H         1.89582431330000   -1.79625008850000    0.00226585320000
