  20
        -38.94839411
 C         -2.3013991941        3.9950047465       -0.0203270070
 C         -1.1069225960        3.4182149888        0.0265852245
 C         -0.8295896356        1.9857497376        0.0167119017
 C         -1.8395601700        1.0231022253        0.0032200884
 C         -1.5061161421       -0.3185613198       -0.0065722384
 Cl        -2.7690207583       -1.5005643839       -0.0225222784
 C         -0.1893233093       -0.7449410368       -0.0034669460
 C          0.8327996508        0.2049607349        0.0112053421
 C          2.2445688778       -0.1472977616        0.0165548737
 C          2.7936567501       -1.3531351896        0.0043476786
 F          2.1838049551       -2.5297323012       -0.0158987282
 F          4.1094864417       -1.5495508999        0.0109103148
 C          0.4958354052        1.5574570696        0.0220479081
 H         -2.4032990479        5.0663951089       -0.0094386046
 H         -3.2198902175        3.4367386785       -0.0729552742
 H         -0.2243009152        4.0438751830        0.0739252942
 H         -2.8774470974        1.3111898495        0.0027136894
 H          0.0250856792       -1.7998148679       -0.0114275607
 H          2.9456290736        0.6746191493        0.0320883143
 H          1.2852241931        2.2951610373        0.0335105763
