  26
        -39.88319736
 C         -4.5882721267       -1.2295991460       -0.6469023509
 C         -3.7870053907       -0.1970241835       -0.4144323666
 C         -2.3680252302       -0.2515059180       -0.0846366529
 C         -1.6634981660       -1.4459506449        0.0736852709
 C         -0.3259912726       -1.4273187967        0.4063907675
 C          0.3682815931       -0.2343259662        0.5690457952
 C          1.8183202264       -0.2851125177        0.9610090405
 C          2.7274168898       -0.4947808373       -0.2440683360
 O          2.3606016522       -0.8072145746       -1.3357924770
 O          4.0394862079       -0.3167516018        0.0176801948
 C         -0.3114500528        0.9733712205        0.3840345365
 C          0.3268573173        2.2905899989        0.4923376752
 C          1.4742985148        2.6363972785       -0.0725840363
 C         -1.6709496694        0.9405460348        0.0882973244
 H         -5.6280423082       -1.0873330848       -0.8869347189
 H         -4.2496538968       -2.2507317207       -0.6132658846
 H         -4.1955388312        0.8049747191       -0.4712451168
 H         -2.1639729786       -2.3927565786       -0.0521546696
 H          0.2006617130       -2.3612969355        0.5411172384
 H          1.9863586169       -1.1327364915        1.6343235999
 H          2.1098568747        0.6343952637        1.4759289138
 H          4.2097455077       -0.0676936080        0.9352718711
 H         -0.2456735132        3.0310988466        1.0390971465
 H          2.0420774477        1.9523236155       -0.6809064467
 H          1.8688000972        3.6349674256        0.0164731940
 H         -2.1945226012        1.8792156001       -0.0343896275
