  31
        -45.39484518
 C         -0.8321516905        3.6943595333        0.0407967987
 C         -1.8055729137        2.7965700385        0.1274398174
 C         -1.6463341930        1.3458343301        0.1520375795
 C         -2.7671673605        0.5419565795       -0.0370201155
 C         -2.6764737765       -0.8478167052       -0.0230710289
 C         -3.8304706800       -1.7200360770       -0.2152618988
 C         -5.0524114657       -1.3503042440       -0.5779185182
 C         -1.4283071736       -1.4313357823        0.1838340833
 C         -0.3011366812       -0.6412932830        0.3690096786
 O          0.8769196287       -1.2922062013        0.6338532048
 C          2.0692831334       -0.7590029294        0.2209520279
 C          2.2106822447       -0.0373681852       -0.9599890784
 C          3.4604459442        0.4165035298       -1.3398701355
 C          4.5728409490        0.1517263163       -0.5594909724
 C          4.4327476699       -0.5822856788        0.6066983495
 C          3.1886204661       -1.0368136425        0.9997772981
 C         -0.4085855576        0.7419141430        0.3662290290
 H         -1.0438171627        4.7497049132        0.0208803767
 H          0.2078761954        3.4226001507       -0.0216759523
 H         -2.8331682846        3.1372560937        0.1635449259
 H         -3.7248587958        1.0145733269       -0.1909454050
 H         -3.6290773394       -2.7710318772       -0.0477596053
 H         -5.3182601963       -0.3260217094       -0.7753114890
 H         -5.8424071962       -2.0716760344       -0.6982522979
 H         -1.3178183704       -2.5048127830        0.2067710047
 H          1.3466031523        0.1574670124       -1.5788053207
 H          3.5633439131        0.9768039045       -2.2575327044
 H          5.5448539837        0.5107193710       -0.8619352142
 H          5.2967331032       -0.7993165017        1.2170503559
 H          3.0622269536       -1.6110332404        1.9043844482
 H          0.4677670814        1.3425874876        0.5542712526
