  20
        -34.89699585
 C          2.4201223351        2.6531825000        0.0665733612
 C          2.8217743848        1.3944308612       -0.0590353058
 C          1.9781244441        0.2038717453       -0.0306342910
 C          2.5858936643       -1.0528390194        0.0009278759
 C          1.8226898186       -2.2048528398        0.0332967118
 C          0.4437190786       -2.1255060897        0.0297088684
 C         -0.1921325815       -0.8815599708       -0.0064817715
 C         -1.6476097771       -0.8609440825       -0.0125242797
 C         -2.4608088275        0.1842568794       -0.0027084722
 F         -2.1418573352        1.4735064341        0.0152124233
 F         -3.7888437761        0.0722094398       -0.0075986235
 C          0.5869867424        0.2718801303       -0.0377897854
 H          3.1225484171        3.4684108770        0.0371478338
 H          1.3888171594        2.9268583785        0.2085402982
 H          3.8785489470        1.1907098508       -0.1835361392
 H          3.6642529373       -1.1219514872        0.0035000339
 H          2.3053124275       -3.1707441462        0.0596305503
 H         -0.1494139725       -3.0277719745        0.0534438023
 H         -2.1413841641       -1.8222423635       -0.0218121345
 H          0.1118661804        1.2366882551       -0.0779774617
