  26
        -46.99796069
 C         -2.0689591217       -3.1550215320        0.1221326520
 C         -2.1845788130       -1.8874618156       -0.2553759566
 C         -1.1208703725       -0.8940508696       -0.1531573273
 C          0.2212652600       -1.2712218000       -0.1473607868
 C          1.2501951977       -0.3474545821       -0.0513540104
 C          2.6411638545       -0.8896190490       -0.1718189781
 O          3.0283865049       -1.8426912677        0.4419107766
 O          3.4250500962       -0.2838712044       -1.0834948029
 C          0.9617716682        1.0182876076        0.0951568253
 C          1.9816540154        2.0417523889        0.3220015704
 C          3.1029470976        1.8538976938        1.0067036706
 C         -0.3779433114        1.3999665372        0.0816512102
 C         -1.4085189561        0.4784585503       -0.0493285709
 C         -2.8113443764        1.0018090238       -0.0889700403
 O         -3.6285372521        0.6870741454       -0.9062577506
 O         -3.1045634896        1.9064093688        0.8641805341
 H         -2.8926954128       -3.8406347580        0.0257713818
 H         -1.1672505406       -3.5537079537        0.5565922222
 H         -3.1221024608       -1.5259625831       -0.6513476028
 H          0.4846672226       -2.3116866871       -0.2561104211
 H          2.9999449421        0.4840050571       -1.4877891674
 H          1.7343931963        3.0282708850       -0.0510499196
 H          3.3599758642        0.9012026593        1.4396043404
 H          3.8009946899        2.6561532196        1.1715347908
 H         -0.6107769120        2.4545621514        0.1605408896
 H         -2.3736193466        2.0496919216        1.4803807867
