53
 energy: -62.364704196015 gnorm: 0.000039164189 xtb: 6.4.1 (23d549d)
C         4.77165335730000   -0.15500484620000    0.96833027420000
C         3.81506972180000    0.05820830350000    0.06826460740000
C         2.50685418620000   -0.53742972780000    0.10313765330000
S         2.16049844170000   -1.82690009420000    1.21263161020000
C         0.55508350550000   -2.00089175950000    0.57549782300000
C        -0.32066939640000   -3.02348702080000    1.07877129710000
C        -0.07711496340000   -3.77830467840000    2.14716438150000
C         0.30549769380000   -1.08642463960000   -0.42757922080000
C        -1.01838533670000   -1.02711184920000   -1.12930316150000
C        -2.10238680960000   -0.38609525800000   -0.25387679360000
C        -3.42262946760000   -0.18029286280000   -0.99674823060000
C        -4.10836811350000   -1.46345329850000   -1.47142380690000
C        -4.48633073560000   -2.44398199720000   -0.36013845960000
C        -5.49492685950000   -1.87261166410000    0.62912669810000
C         1.41716998950000   -0.24551270740000   -0.69191774000000
C         1.45445706070000    0.85421064630000   -1.71184764720000
C         1.51879398400000    2.25480496200000   -1.08607135600000
C         0.28472693160000    2.57120127430000   -0.24714919850000
C         0.35041526130000    3.93897630390000    0.43219752710000
C         0.26590541100000    5.11033667140000   -0.54441472520000
C         0.21929876690000    6.44667441810000    0.18648940710000
H         5.74046532740000    0.30455700000000    0.88325553100000
H         4.61051730040000   -0.79601050120000    1.81923097270000
H         4.00705220660000    0.71087178400000   -0.77301867290000
H        -1.23340341600000   -3.17136726010000    0.51718226310000
H         0.81964332800000   -3.65364977220000    2.73116355370000
H        -0.76536941200000   -4.53908013610000    2.47058878730000
H        -1.32045404440000   -2.04040704020000   -1.40185456890000
H        -0.92759212870000   -0.45447691940000   -2.05307519820000
H        -1.74691257190000    0.58842087670000    0.08542055670000
H        -2.26189816450000   -0.99625244030000    0.63579729240000
H        -3.23725635870000    0.44808933810000   -1.87251128390000
H        -4.10445493740000    0.36933222260000   -0.34515524080000
H        -3.46037158650000   -1.97572141530000   -2.18597934910000
H        -5.01826131520000   -1.18100551640000   -2.00774336360000
H        -3.59241990870000   -2.75999131250000    0.18003867560000
H        -4.91467223670000   -3.33511752590000   -0.82632309000000
H        -5.06486108720000   -1.05045682090000    1.19523091910000
H        -5.80748468570000   -2.64003089470000    1.33390454990000
H        -6.37675131250000   -1.50823359170000    0.10610302500000
H         0.57238467230000    0.79967464280000   -2.35029708790000
H         2.33028786040000    0.71601027330000   -2.35252583060000
H         1.61471829140000    2.98355248100000   -1.89313060930000
H         2.40371294000000    2.33351459700000   -0.45204048290000
H         0.18996567490000    1.80410322360000    0.52560792850000
H        -0.60579340210000    2.52685805600000   -0.87942669010000
H         1.27756952590000    4.01192879670000    1.00571975450000
H        -0.47979608820000    4.01623256510000    1.13913836600000
H        -0.63118897130000    5.00227469720000   -1.15887953460000
H         1.12998983940000    5.10024034030000   -1.21079077560000
H        -0.65034706820000    6.49585766280000    0.83846061040000
H         0.16391572000000    7.27009567210000   -0.52196138230000
H         1.11054577570000    6.57804173080000    0.79640497990000
