  23
        -42.29055210
 C          1.5484844969        3.7883713759       -0.0395726363
 C          2.1100180318        2.5878751130        0.0323328959
 C          1.4189002693        1.3032642663        0.0171791630
 C          2.1722975611        0.1304013747        0.0079469027
 C          1.5877718471       -1.1341239880       -0.0087025344
 C          2.4497126059       -2.3110405629       -0.0176746871
 C          2.0582494572       -3.5791519402        0.0061725867
 C          0.1951020608       -1.2201224202       -0.0157216000
 C         -0.5616246982       -0.0610302683       -0.0048178016
 C         -2.0622612014       -0.1271284215       -0.0010584268
 F         -2.5461527513       -1.3717092907       -0.1128894770
 F         -2.5893583759        0.3817796534        1.1304793107
 F         -2.6060886152        0.5820707643       -1.0085738607
 C          0.0294203880        1.1934269231        0.0131746647
 H          2.1450712970        4.6840470175       -0.0235528744
 H          0.4852960691        3.9340043964       -0.1208718792
 H          3.1881538078        2.5153623998        0.1039648989
 H          3.2511762565        0.2051305027        0.0126544427
 H          3.5094153794       -2.0890856678       -0.0428800925
 H          1.0233753422       -3.8731685576        0.0359659173
 H          2.7742704991       -4.3826883538       -0.0020233544
 H         -0.2978207554       -2.1781928003       -0.0313053799
 H         -0.5964972322        2.0710782463        0.0261064322
  23
        -42.29046431
 C          1.7502273728        3.5796548082        0.3087048140
 C          2.2026690942        2.3557286471        0.0667787871
 C          1.4099483985        1.1309740357        0.0302604529
 C          2.0669150619       -0.0960875977       -0.0272651756
 C          1.3768564855       -1.3057557673       -0.0576378718
 C          2.0423436018       -2.6028495715       -0.1145164265
 C          3.3495204173       -2.8218994202       -0.1863595251
 C         -0.0178381672       -1.2722745072       -0.0339565929
 C         -0.6804137210       -0.0561478072        0.0188344442
 C         -2.1819726556       -0.0310822748        0.0021266673
 F         -2.7322159458       -1.1297630265        0.5420665767
 F         -2.6949944620        1.0162638539        0.6680585295
 F         -2.6722765628        0.0517701870       -1.2525864683
 C          0.0150330431        1.1413764601        0.0462134866
 H          2.4138294112        4.4269566543        0.3206593429
 H          0.7145675017        3.7908999719        0.5116985909
 H          3.2611215842        2.2111758391       -0.1106398313
 H          3.1461452594       -0.1011823577       -0.0416610079
 H          1.3689729673       -3.4505189266       -0.0973780056
 H          4.0772218409       -2.0291584601       -0.2113871396
 H          3.7447001392       -3.8221711005       -0.2253650966
 H         -0.5835359046       -2.1916726586       -0.0557906081
 H         -0.5290135653        2.0713857841        0.0764638208
  23
        -42.29033678
 C          3.0700186145        2.9135531668       -0.1069473040
 C          1.7978527973        2.6110866583        0.1195477491
 C          1.1994234080        1.2811568286        0.0598996847
 C          1.9574842272        0.1143324439       -0.0024399057
 C          1.3659588287       -1.1441863835       -0.0643055235
 C          2.1407248770       -2.3798395821       -0.1242304083
 C          3.4423924026       -2.5057433645        0.1018659518
 C         -0.0277001050       -1.2299778519       -0.0738093936
 C         -0.7893797519       -0.0764912437       -0.0021238791
 C         -2.2894923260       -0.1416337586        0.0019910572
 F         -2.7733463305       -1.3878816771       -0.0880895789
 F         -2.8176073593        0.3886782062        1.1225374595
 F         -2.8311287165        0.5489511461       -1.0201826011
 C         -0.1910984509        1.1723681828        0.0698351553
 H          3.4210766162        3.9290889597       -0.0462566954
 H          3.8086218628        2.1759140137       -0.3707227914
 H          1.1018176321        3.4056182638        0.3571841011
 H          3.0324781918        0.1880935227       -0.0027330692
 H          1.5599069409       -3.2621938700       -0.3617672590
 H          4.0733839088       -1.6742593426        0.3657582967
 H          3.9289011734       -3.4637435204        0.0406063068
 H         -0.5107965779       -2.1939066627       -0.1268828741
 H         -0.8068590384        2.0580156223        0.1228000887
