  24
        -37.67354869
 C          4.2216821289       -0.9482936852       -0.0124519255
 C          3.2834459384       -0.0074589779        0.0486587615
 C          1.8629526494       -0.2376177404        0.0422446661
 N          1.2867331041       -1.4603814449       -0.0307062200
 N         -0.0471077651       -1.4096737636       -0.0264558500
 C         -0.3607576554       -0.1235627860        0.0357468730
 N         -1.6460940610        0.3583891228        0.1193948311
 C         -2.8527637770       -0.2878011546        0.0396388272
 C         -2.8063618291       -1.7590843095       -0.2454796481
 O         -3.8724846388        0.3496076153        0.1896919499
 C          0.8115873932        0.6832407695        0.0763935426
 C          0.9229625108        2.1238124092        0.1534459033
 C          0.0679996498        3.0000511352       -0.3628944657
 H          5.2665638008       -0.6941674365       -0.0004184399
 H          3.9929227604       -1.9988295329       -0.0775728538
 H          3.5701803307        1.0332032025        0.1070960116
 H          1.7440154498       -2.3543276118       -0.0915601810
 H         -1.7120109644        1.3490690632        0.3245052375
 H         -2.2403821899       -1.9451511304       -1.1540334214
 H         -3.8207513364       -2.1336271432       -0.3474929926
 H         -2.2966748969       -2.2709796637        0.5663875834
 H          1.8026202233        2.4863959544        0.6717777631
 H         -0.7910633730        2.7074291475       -0.9430418238
 H          0.2243300262        4.0594385861       -0.2539718528
