25
 energy: -44.389981243080 gnorm: 0.000105070180 xtb: 6.4.1 (23d549d)
C         0.97012661970000   -3.85194336360000   -0.15119087150000
C         1.50458292240000   -2.64493660460000   -0.00623320220000
C         0.79536659990000   -1.37304296850000   -0.01606599980000
C        -0.58745482290000   -1.26266689990000   -0.00472822110000
C        -1.24597335580000   -0.03463849700000   -0.02210825090000
C        -2.72073421730000    0.04149506660000    0.03142501250000
O        -3.36091517170000    1.03062342680000   -0.25204094120000
O        -3.38147936890000   -1.05404339460000    0.44136787010000
C        -0.48584181120000    1.16227679260000   -0.09320155300000
N        -1.09102748240000    2.36184818100000   -0.12144637100000
C         0.93037883080000    1.07853276910000   -0.08796967790000
C         1.73791141120000    2.29968558520000   -0.19106579610000
C         2.84329721690000    2.54240718950000    0.49727864530000
C         1.51883092250000   -0.17092416530000   -0.03598647670000
F         2.86519797090000   -0.25075807060000   -0.06031843310000
H         1.58402671990000   -4.73501498620000   -0.12863618280000
H        -0.08232922610000   -4.01876847230000   -0.30665527240000
H         2.57511783610000   -2.56054676970000    0.12403753930000
H        -1.15369592310000   -2.18303603940000   -0.01325720420000
H        -2.78965362020000   -1.76543123430000    0.71843538360000
H        -2.10015403790000    2.38066839620000   -0.18734935370000
H        -0.55207513330000    3.20714373770000   -0.11048294160000
H         1.38025066060000    3.03129390050000   -0.90706093390000
H         3.22978613150000    1.84977863150000    1.22477194630000
H         3.40335456470000    3.45094339940000    0.35704169050000
