26
 energy: -32.774247444512 gnorm: 0.000037403902 xtb: 6.4.1 (23d549d)
C         3.50866526850000   -1.16837400700000    0.54810732770000
C         2.86931845060000   -0.18090327140000   -0.06505711360000
C         1.41861780520000   -0.00883921960000   -0.08851591590000
C         0.57549329740000   -1.11525081890000   -0.05018181040000
C        -0.80680545810000   -1.01240841540000   -0.06634051650000
C        -1.62178061420000   -2.27161030940000   -0.06326663760000
C        -1.37938539730000    0.26340631290000   -0.12834538040000
C        -2.81960958530000    0.52449992090000   -0.13795223600000
C        -3.73892583210000   -0.08981374730000    0.59352180220000
C        -0.53341300060000    1.37092803720000   -0.20600835690000
C         0.84426941560000    1.26784990310000   -0.17906697490000
C         1.69102630900000    2.50491959840000   -0.23166021250000
H         4.58249654410000   -1.24611019380000    0.52544264600000
H         2.98999583130000   -1.92668849540000    1.11047218690000
H         3.44309686480000    0.57432418430000   -0.58596039020000
H         1.01873359910000   -2.10060848340000   -0.02896100700000
H        -1.06792938080000   -3.07612689430000   -0.54352890840000
H        -2.56459719760000   -2.12967923290000   -0.58607524050000
H        -1.84076840190000   -2.58425905250000    0.95797656790000
H        -3.12089000520000    1.34600078620000   -0.77852835210000
H        -3.49540397210000   -0.87153843010000    1.29116884430000
H        -4.77722588930000    0.19302511980000    0.54137239650000
H        -0.98257304820000    2.35324368830000   -0.27105813870000
H         1.06685205550000    3.39494869230000   -0.20699493020000
H         2.28194788240000    2.52872376900000   -1.14767318250000
H         2.37723834650000    2.53891435690000    0.61332352180000
