  17
        -22.49393220
 C          2.8853306428       -0.0763154235       -0.0001787922
 C          1.3911573393        0.0053047164       -0.0000022987
 C          0.7143201546        1.2179548961        0.0000728412
 C         -0.6700929676        1.2280737884        0.0001190765
 C         -1.3546269331        0.0174710059        0.0000590312
 C         -2.8500440817       -0.0492522680       -0.0002067600
 N         -0.7101934841       -1.1443173762        0.0001202973
 C          0.6073736948       -1.1456359308        0.0000951485
 H          3.3277318497        0.9170691933       -0.0008015031
 H          3.2352315235       -0.6153167174       -0.8798107029
 H          3.2355389346       -0.6143369262        0.8799350818
 H          1.2662702447        2.1483168982        0.0000771787
 H         -1.2121715770        2.1621300049        0.0001592411
 H         -3.2864913454        0.9457441800        0.0007583478
 H         -3.1938343216       -0.5946055646        0.8765153845
 H         -3.1935386238       -0.5926906979       -0.8782470713
 H          1.0698944180       -2.1254668632        0.0002398524
