  26
        -36.71845275
 C          4.0457830655        0.5010238592       -0.2803523341
 C          2.9547670292        0.8111354557        0.4072147093
 C          1.6005899200        0.3076372845        0.1950111592
 C          0.5379117149        1.1832553423        0.4156994365
 C         -0.7844065331        0.8094030960        0.2171900026
 C         -1.8254322514        1.8307370815        0.2771957622
 C         -2.8423476078        1.9196137260       -0.5730449986
 C         -1.0001606973       -0.5517365492       -0.0903577019
 N         -2.2391769332       -1.1388521861       -0.1922513283
 N         -3.3392739518       -0.7831479661        0.6094337040
 N          0.0096708573       -1.3925532819       -0.2968836196
 C          1.2674566246       -0.9979652450       -0.2032945237
 C          2.2785116143       -2.0683734377       -0.4719170802
 H          4.9951600135        0.9540953446       -0.0480847258
 H          4.0383987992       -0.1815280405       -1.1106815425
 H          3.0285581999        1.5544027674        1.1939917071
 H          0.7503815620        2.2062517723        0.6986643028
 H         -1.6879895905        2.5918588230        1.0366684088
 H         -2.9599150279        1.2243033826       -1.3888731726
 H         -3.5623295474        2.7182539259       -0.5114701255
 H         -2.1689063635       -2.1434085993       -0.3163205689
 H         -3.8549492148       -0.0208701322        0.1669798550
 H         -3.0314273917       -0.4492556805        1.5231501490
 H          1.8035247855       -3.0377969569       -0.3463741775
 H          3.1286642773       -1.9797945561        0.2000659060
 H          2.6358183509       -1.9998653717       -1.4984983857
