  23
        -29.60527945
 C          3.9981467337       -0.4633457855        0.0895209839
 C          2.9823296029        0.3913318703        0.1238721930
 C          1.5669761270        0.0688009540        0.0053591975
 C          1.0909622618       -1.2237622491       -0.2207778795
 C         -0.2616360888       -1.4549917617       -0.3227031683
 C         -1.2005896615       -0.4295316209       -0.1813053256
 C         -2.6131649393       -0.8014159530       -0.2718816777
 C         -3.6023035706       -0.3367068518        0.4787704346
 C         -0.7374085695        0.8773049452        0.0190344095
 C         -1.6574585907        2.0588897827        0.1034617535
 C          0.6294006061        1.0950839132        0.1051142005
 H          5.0161379804       -0.1269930499        0.1879798474
 H          3.8641994649       -1.5241202836       -0.0351608690
 H          3.1921997347        1.4462186873        0.2573187300
 H          1.7796969490       -2.0473806403       -0.3256440374
 H         -0.6169988721       -2.4609622645       -0.4994994048
 H         -2.8248075743       -1.5786049988       -0.9978847027
 H         -3.4462146819        0.3901735819        1.2562647716
 H         -4.6111243745       -0.6958646404        0.3607790565
 H         -2.5691577453        1.8875610960       -0.4636584207
 H         -1.1614642722        2.9472841397       -0.2830186355
 H         -1.9312456134        2.2574503613        1.1398461993
 H          0.9819661007        2.1071973834        0.2551483734
