19
 energy: -28.270152301299 gnorm: 0.000096584724 xtb: 6.4.1 (23d549d)
C        -2.75080791900000    0.90026291610000    0.45758659950000
C        -2.20609043960000   -0.14313225380000   -0.15249083390000
C        -0.80053570950000   -0.50247232320000   -0.12656503870000
N        -0.48526042330000   -1.78610638160000   -0.21929594890000
N         0.84644084860000   -1.85719088160000   -0.08805507240000
C         1.40554276180000   -0.64109581020000    0.09631906020000
N         2.75673156580000   -0.47910265780000    0.32067145450000
C         0.37022278330000    0.28947995500000    0.06489104790000
C         0.56560778090000    1.72436125080000    0.13260480930000
C        -0.16982407270000    2.64010328900000   -0.48471213700000
H        -3.81271293090000    1.07618594610000    0.42544235880000
H        -2.16154644560000    1.60942356280000    1.01321078820000
H        -2.82639505540000   -0.86553690600000   -0.66666635240000
H         1.30417615760000   -2.75416588000000   -0.09071940370000
H         3.34769828730000   -1.18772149170000   -0.08813147630000
H         3.08940825570000    0.45676493180000    0.14602420970000
H         1.42772896670000    2.03582842460000    0.71382028900000
H        -1.01877446080000    2.37244426190000   -1.08957868120000
H         0.05353720240000    3.69014565010000   -0.40114492820000
