26
 energy: -40.959645452434 gnorm: 0.000136633411 xtb: 6.4.1 (23d549d)
C        -4.05661686500000    2.05448549330000   -0.36639063620000
C        -3.45934204370000    0.98825871230000    0.14818939840000
C        -2.02619111110000    0.70797032260000    0.04093977500000
C        -1.10897799420000    1.75816026940000    0.08375808910000
C         0.25127007470000    1.52064128120000    0.03199104000000
C         0.69558967390000    0.21580594580000   -0.06223099800000
S         2.45585285230000   -0.11482297150000   -0.08102744170000
C         2.87282863650000   -0.18887961490000    1.68913536570000
O         2.68573839840000   -1.41574706600000   -0.64890638240000
O         3.14364671540000    1.01003472470000   -0.65439139460000
C        -0.18554171850000   -0.84117702890000   -0.11505090330000
C        -1.55999842410000   -0.61695416090000   -0.06685259380000
C        -2.49427010880000   -1.73725349040000   -0.17840977260000
C        -2.25431432080000   -2.96498043160000    0.26212244830000
H        -5.11416265640000    2.21933336210000   -0.25160835870000
H        -3.51874499860000    2.79068973750000   -0.93998334650000
H        -4.04246077830000    0.25570431910000    0.69055093050000
H        -1.47400986980000    2.76938648610000    0.17934695690000
H         0.97175378580000    2.32286077160000    0.04895223710000
H         2.30142218780000   -0.99257542650000    2.13446554140000
H         2.62520818880000    0.76644015550000    2.13278450140000
H         3.93467946780000   -0.38402484860000    1.77132340780000
H         0.21267908040000   -1.83635728350000   -0.23449740000000
H        -3.43661937680000   -1.51599922750000   -0.66153088810000
H        -1.34007449750000   -3.22474948810000    0.76864151560000
H        -2.97397653090000   -3.75648683340000    0.14304956040000
