29
 energy: -43.531203402292 gnorm: 0.000186407814 xtb: 6.4.1 (23d549d)
C        -1.89680320960000   -3.23579150140000    0.43597943570000
C        -0.94787288400000   -2.59557917910000   -0.23177724260000
C        -0.60983847730000   -1.17940725810000   -0.08114120030000
C        -1.60029625780000   -0.20526414120000    0.01665270980000
O        -2.89466515190000   -0.63149938470000    0.01238088210000
C        -3.93272445860000    0.31468186250000   -0.04684069660000
C        -1.24680671490000    1.14819950630000    0.08155607670000
C         0.06108306070000    1.59316059450000    0.05441645190000
C         0.27644074510000    3.03097687330000    0.11206698130000
C         1.42958822660000    3.68779691280000    0.04397037450000
C         1.09776471560000    0.61797041080000   -0.02401693600000
N         2.38242959700000    1.01532216520000   -0.03061404480000
C         3.33602964700000    0.12991516340000   -0.07938651080000
C         3.10672570620000   -1.25345651620000   -0.10853998580000
C         1.81159017260000   -1.69242487880000   -0.10415859170000
C         0.74615585780000   -0.76371242020000   -0.08174380100000
H        -2.10018532700000   -4.27884883180000    0.26007897970000
H        -2.49530639240000   -2.74800399270000    1.18442391980000
H        -0.35731193160000   -3.13548237490000   -0.96245613790000
H        -4.85055566510000   -0.26767971560000   -0.11754013300000
H        -3.84696252570000    0.95844699630000   -0.92821097080000
H        -3.97120306900000    0.93351954100000    0.85602429780000
H        -2.02822407040000    1.89030856750000    0.14888634510000
H        -0.64147302070000    3.60095416640000    0.21581165260000
H         2.36490130480000    3.17084023940000   -0.06102353600000
H         1.45305172610000    4.76410094860000    0.09578964230000
H         4.34532835110000    0.52327297620000   -0.08485435280000
H         3.93553981910000   -1.94455648870000   -0.12325691890000
H         1.59705805170000   -2.75058527610000   -0.10028865580000
