  19
        -28.27335416
 C         -2.9336309618        0.7553120151        0.2266956928
 C         -2.3375336783       -0.3805939299       -0.1129863018
 C         -0.9121103127       -0.6265074602       -0.0721024080
 N         -0.4623918872       -1.8679458474        0.0343295877
 N          0.8741971417       -1.7757218122        0.0738521673
 C          1.3050903564       -0.4955696056        0.0054142898
 N          2.6411811531       -0.1634603820        0.0593376885
 C          0.1695226523        0.3026375857       -0.0998299512
 C          0.1190821735        1.7333080221       -0.2981876579
 C          1.0074798547        2.6027127458        0.1717750468
 H         -4.0041594860        0.8618505383        0.1780925274
 H         -2.3830675977        1.6085773694        0.5838901476
 H         -2.9215608679       -1.2397503334       -0.4150147636
 H          1.4307808684       -2.6072250865        0.1887025583
 H          3.2696029707       -0.8793970751       -0.2771907874
 H          2.8353295193        0.7479476649       -0.3314242390
 H         -0.7134761760        2.0834992396       -0.8960472483
 H          1.8174593350        2.3039697088        0.8160908892
 H          0.9293725862        3.6558028726       -0.0393480001
