  26
        -41.23617056
 C         -4.5282793488       -0.4365935802       -0.5571708449
 C         -3.6465510792        0.3319351029        0.0687298025
 C         -2.2043498977        0.1002491384        0.0958327453
 C         -1.6974627422       -1.1967381213        0.0519331108
 C         -0.3423647824       -1.4714573964        0.0848838486
 C          0.1281836242       -2.8944775292        0.0261522875
 C          0.5584819002       -0.3973011117        0.1622315730
 C          1.9905087130       -0.6563393247        0.2126705720
 C          2.9755161776        0.1828507955       -0.0678559324
 F          2.8918162475        1.4431450115       -0.4815622295
 F          4.2643666251       -0.1545402552        0.0167768302
 C          0.0530065523        0.9019043253        0.2112140832
 C         -1.3032856216        1.1712927655        0.1822716806
 C         -1.7812878611        2.5916796375        0.2241475367
 H         -5.5822289027       -0.2174436388       -0.5373005755
 H         -4.2340677525       -1.3002373415       -1.1297827079
 H         -3.9929514434        1.2098202926        0.5976404571
 H         -2.3943285860       -2.0210290547        0.0095387944
 H         -0.7176556181       -3.5665208897       -0.0940832023
 H          0.6498258200       -3.1687760283        0.9430939639
 H          0.8079429631       -3.0449431179       -0.8111851069
 H          2.3091197183       -1.6459202520        0.5021586280
 H          0.7383913348        1.7312405397        0.2873422752
 H         -0.9390288802        3.2775654023        0.1846715232
 H         -2.3353852579        2.7838595730        1.1431889814
 H         -2.4400387653        2.8013744230       -0.6170134303
  26
        -41.23616493
 C         -4.5816623426       -0.4807996362        0.2017908481
 C         -3.6357591815        0.3470803885       -0.2221448802
 C         -2.1993402588        0.1094969305       -0.1010645634
 C         -1.6929334859       -1.1877860958       -0.1422161923
 C         -0.3421552365       -1.4667517274       -0.0398258539
 C          0.1295391742       -2.8888933818       -0.1101149005
 C          0.5548308724       -0.3967571484        0.1078873876
 C          1.9815234130       -0.6608560681        0.2307155530
 C          2.9820970011        0.1809771496        0.0225891182
 F          2.9236033200        1.4499475096       -0.3679796683
 F          4.2636513784       -0.1617564918        0.1714118968
 C          0.0498989766        0.9029482470        0.1502149751
 C         -1.3017222219        1.1769152472        0.0455488682
 C         -1.7817730421        2.5954819718        0.1151506420
 H         -5.6268650231       -0.2533850065        0.0791251347
 H         -4.3533319953       -1.4060197683        0.7039687751
 H         -3.9214136509        1.2813312674       -0.6866758873
 H         -2.3839426643       -2.0063637760       -0.2809507464
 H         -0.7083221755       -3.5547444812       -0.3008089188
 H          0.5939717846       -3.1899176265        0.8290665511
 H          0.8589643134       -3.0179548345       -0.9083766676
 H          2.2820156698       -1.6570831286        0.5170714109
 H          0.7311077314        1.7286403942        0.2824630074
 H         -0.9541659908        3.2672593792        0.3276471705
 H         -2.5336389467        2.7108074980        0.8943221775
 H         -2.2288990037        2.8959414715       -0.8325268881
  26
        -41.23420414
 C         -4.4036271350        0.7982138258        0.6023792016
 C         -3.6747953433       -0.0857506850       -0.0645215703
 C         -2.2131552262       -0.1439459056       -0.1171217889
 C         -1.6255961353       -1.4086010632       -0.0605435198
 C         -0.2580017913       -1.6052274333       -0.0676418009
 C          0.2964868355       -2.9952954227        0.0283111551
 C          0.5763580802       -0.4787540731       -0.1566299058
 C          2.0226703046       -0.6487339207       -0.1783470089
 C          2.9457567694        0.2577792503        0.1025121247
 F          2.7713430446        1.5176039834        0.4879875591
 F          4.2552295018        0.0041755174        0.0485859228
 C         -0.0087403229        0.7814906835       -0.2556904227
 C         -1.3810853584        0.9757122698       -0.2366032399
 C         -1.9086901360        2.3705872910       -0.3870167770
 H         -5.4794347129        0.7442929697        0.6107261629
 H         -3.9635119386        1.5854668459        1.1885240942
 H         -4.1741295642       -0.8933251092       -0.5878424086
 H         -2.2753764638       -2.2702568213        0.0119480775
 H         -0.5089573091       -3.7150252597        0.1498449318
 H          0.9697887639       -3.0869229689        0.8792410978
 H          0.8494460773       -3.2553715353       -0.8743024546
 H          2.4082939814       -1.6217809715       -0.4408465840
 H          0.6240896387        1.6481218580       -0.3664594063
 H         -1.2219997238        2.9671455429       -0.9839720821
 H         -2.0011457010        2.8505438006        0.5871395957
 H         -2.8862015969        2.3711857718       -0.8629334149
  26
        -41.23419383
 C         -4.4800109960        0.6891593459       -0.4922274176
 C         -3.6694298819       -0.0597659407        0.2421383112
 C         -2.2107453118       -0.1228392101        0.1360476396
 C         -1.6196907483       -1.3822294200        0.2476446673
 C         -0.2583949908       -1.5884681838        0.1323794076
 C          0.3002475569       -2.9744798475        0.2578962500
 C          0.5687977982       -0.4731371855       -0.0788716241
 C          2.0071662015       -0.6556893796       -0.2195470316
 C          2.9579472588        0.2484313439       -0.0434951439
 F          2.8276328958        1.5186109245        0.3255812667
 F          4.2556426611       -0.0186022062       -0.2063509076
 C         -0.0153865758        0.7888961534       -0.1549917014
 C         -1.3831807430        0.9903718896       -0.0530417568
 C         -1.9053674953        2.3941876111       -0.1128435492
 H         -5.5489361842        0.6468655684       -0.3661100766
 H         -4.1191191780        1.3457940290       -1.2640298997
 H         -4.0960656096       -0.7471783779        0.9637536662
 H         -2.2634512216       -2.2351431519        0.4150678241
 H         -0.4910405400       -3.6798566237        0.4984618747
 H          1.0528142310       -3.0207652802        1.0435577767
 H          0.7627285668       -3.2914045905       -0.6769418478
 H          2.3610658784       -1.6382639862       -0.4917120266
 H          0.6129835620        1.6515636948       -0.3118390964
 H         -1.1611096310        3.0850473979        0.2776529338
 H         -2.8215702153        2.4961844141        0.4634093547
 H         -2.1150073489        2.6811240011       -1.1433080223
  26
        -41.23396346
 C         -4.3214757270       -0.7613599868        0.7550610656
 C         -3.6702280732        0.1607490766        0.0587828582
 C         -2.2183283790        0.2159650841       -0.1002370768
 C         -1.4677549697       -0.9550329335       -0.1237103244
 C         -0.0886295476       -0.9644575390       -0.2684938461
 C          0.6306546342       -2.2766616825       -0.3308458069
 C          0.5687238291        0.2634703991       -0.3925705361
 C          2.0189163027        0.4022880273       -0.5440290763
 C          2.9523975872       -0.1963312641        0.1737772379
 F          2.7787765207       -1.0388705754        1.1852988908
 F          4.2603554027       -0.0029215237       -0.0073269957
 C         -0.1833450575        1.4382884930       -0.4105465731
 C         -1.5570820119        1.4433898001       -0.2608612622
 C         -2.3063936828        2.7420164746       -0.2556840742
 H         -5.3952276489       -0.7550448487        0.8344303734
 H         -3.8103622143       -1.5453239299        1.2883226072
 H         -4.2294629221        0.9487657741       -0.4277402668
 H         -1.9838108355       -1.9009473699       -0.0489568635
 H         -0.0346562661       -3.0518809607       -0.7041301885
 H          0.9698509242       -2.5740227543        0.6608895311
 H          1.5007064531       -2.2186854621       -0.9816237022
 H          2.3705363554        1.1128893833       -1.2785555703
 H          0.3363032507        2.3793602121       -0.5269468874
 H         -1.6161659583        3.5808076196       -0.2985021746
 H         -2.9100735783        2.8344783616        0.6457371940
 H         -2.9728481870        2.8047047458       -1.1160933622
  26
        -41.23192268
 C         -4.6451012202        0.2906131400        0.2076116039
 C         -3.6194973445       -0.1520695427       -0.5055943440
 C         -2.2003028912        0.0118015449       -0.1820595248
 C         -1.3710397908       -1.0887273446       -0.3880931374
 C         -0.0147957331       -1.0821564286       -0.1056171635
 C          0.7826772649       -2.3343476534       -0.3021218491
 C          0.5448516671        0.1026156145        0.3845058003
 C          1.9630740200        0.2590024770        0.7181695427
 C          2.9958763307       -0.0952633104       -0.0249455305
 F          2.9711469922       -0.6556254747       -1.2286198106
 F          4.2661898746        0.0981326912        0.3352574142
 C         -0.2797351833        1.2056978129        0.5929207718
 C         -1.6363375579        1.1943253769        0.3142357698
 C         -2.4267158412        2.4509884672        0.5226976311
 H         -5.6612643522        0.0950686291       -0.0915342532
 H         -4.5179055549        0.8339637140        1.1273368629
 H         -3.8101569933       -0.7454811332       -1.3924687715
 H         -1.8141966978       -1.9994698425       -0.7673351163
 H          0.1403820041       -3.2071810715       -0.2100227920
 H          1.5833197682       -2.4097864683        0.4307682630
 H          1.2308622145       -2.3501363030       -1.2950493004
 H          2.1969735068        0.7695659249        1.6415363481
 H          0.1657764008        2.1159967688        0.9700951435
 H         -1.7914380506        3.3216941333        0.3731302634
 H         -2.8149158678        2.4949799702        1.5403422816
 H         -3.2666861711        2.5028729607       -0.1654808396
