  26
        -41.23617046
 C         -4.5272976244       -0.4347366309        0.5604758899
 C         -3.6467165566        0.3310153864       -0.0703329118
 C         -2.2043845083        0.0996729095       -0.0968755225
 C         -1.6974795658       -1.1972554366       -0.0530805829
 C         -0.3422928140       -1.4717532512       -0.0853959037
 C          0.1283002491       -2.8947954538       -0.0272978592
 C          0.5584434348       -0.3974182507       -0.1617472135
 C          1.9905058442       -0.6563016540       -0.2110778106
 C          2.9755486363        0.1832885463        0.0681916782
 F          2.8921898303        1.4444638900        0.4792073983
 F          4.2643271711       -0.1547391415       -0.0152054448
 C          0.0528128045        0.9017703544       -0.2105290391
 C         -1.3035331184        1.1708896994       -0.1824332768
 C         -1.7822220335        2.5910294108       -0.2240840128
 H         -5.5814436899       -0.2165454783        0.5405356609
 H         -4.2316539724       -1.2949728875        1.1374765713
 H         -3.9938480536        1.2058907524       -0.6037910991
 H         -2.3944177253       -2.0215493975       -0.0114727834
 H         -0.7175078073       -3.5668024377        0.0933650625
 H          0.8086610459       -3.0455802533        0.8094788563
 H          0.6491966270       -3.1688283570       -0.9447555334
 H          2.3093403278       -1.6464619825       -0.4984095017
 H          0.7380820059        1.7312828226       -0.2856205841
 H         -0.9404628907        3.2774222318       -0.1828092988
 H         -2.4424675356        2.7996242859        0.6161663323
 H         -2.3350470450        2.7834552372       -1.1438415137
