  22
        -36.89479414
 C          4.0295732230        0.5932535057       -0.1339987050
 C          3.2979402961       -0.5036593780        0.0236569987
 C          1.8434588657       -0.5759520395        0.0497696633
 C          1.2147053463       -1.8236554931        0.1164996077
 C         -0.1579594149       -1.9346026226        0.1296318654
 C         -0.9942765727       -0.8145960590        0.1001187294
 C         -2.4446204631       -0.9808477503        0.0794565039
 C         -3.0613997144       -2.0158664150       -0.4790808240
 C         -0.3566821853        0.4368899501        0.0594005832
 N         -1.0798797218        1.6854374692        0.0329543184
 O         -2.1344470190        1.7663438416        0.6260415820
 O         -0.5650476498        2.6031557466       -0.5717063867
 C          1.0257366771        0.5484038352        0.0175783252
 H          5.1047601561        0.5482918429       -0.1442901071
 H          3.5982409025        1.5706371414       -0.2642268155
 H          3.7957478239       -1.4586197876        0.1375176955
 H          1.8198115246       -2.7179913696        0.1554637169
 H         -0.6091812874       -2.9128296643        0.1869113787
 H         -3.0272507985       -0.1918273289        0.5304011407
 H         -2.5312698557       -2.8081544317       -0.9817584660
 H         -4.1346509821       -2.0927771327       -0.4720107349
 H          1.4503788571        1.5391888221       -0.0279543362
