  24
        -42.10691353
 C         -4.0426018375        0.3930684576        0.1240841717
 C         -3.0493299668       -0.4834196327        0.0253705399
 C         -1.6187661264       -0.2118498265       -0.0228225719
 C         -0.7348307790       -1.2860118638       -0.0972126078
 C          0.6494689180       -1.1645945252       -0.1593238712
 C          1.4425313168       -2.3902576490       -0.3318274473
 C          1.2103866450       -3.5229583916        0.3148527355
 C          1.2141366903        0.1198754917       -0.1147614589
 O          2.5254242101        0.4625314656       -0.1208014104
 C          3.5227790090       -0.4337653954        0.3173995237
 C          0.3359368208        1.2099806755       -0.0502025960
 F          0.8582699674        2.4497475492       -0.0151899175
 C         -1.0381323087        1.0596171140       -0.0148344297
 F         -1.7830857985        2.1775033833        0.0381180969
 H         -5.0657472958        0.0581339556        0.1512882530
 H         -3.8924425353        1.4554271948        0.1811747051
 H         -3.2868657691       -1.5392920996       -0.0247494371
 H         -1.1491026281       -2.2820662290       -0.1423243151
 H          2.2288877672       -2.3452457969       -1.0724019229
 H          0.4453819303       -3.6012533429        1.0692769030
 H          1.7913449590       -4.4091668953        0.1270554686
 H          4.2938415501        0.1842144746        0.7803301261
 H          3.9656707882       -0.9730821102       -0.5238279880
 H          3.1385232842       -1.1453376003        1.0501595214
