  24
        -42.12764517
 C         -4.5675271437       -1.7941907485       -0.0134237925
 C         -3.2665535768       -1.9619757043       -0.2196294900
 C         -2.2299375403       -0.9420868974       -0.1351248640
 C         -2.4853009784        0.3863910787        0.2014309220
 C         -1.4703306974        1.3210828895        0.2478165892
 C         -0.1533123382        0.9618147092       -0.0234341793
 O          0.8883197630        1.8286089083       -0.0574066075
 C          0.6626600764        3.1825365373        0.2499200938
 C          0.1329819423       -0.3821156373       -0.3315913122
 C          1.4920572625       -0.8421903122       -0.6091783555
 C          2.5976390506       -0.4601929986        0.0070116082
 F          2.7173493201        0.3737151435        1.0281829629
 F          3.8053461212       -0.9358758048       -0.3047617468
 C         -0.9083844329       -1.2955986201       -0.4025256785
 H         -5.2571664646       -2.6158974860       -0.1010317716
 H         -5.0002422278       -0.8441293190        0.2484559644
 H         -2.9024219792       -2.9480410660       -0.4816754833
 H         -3.4917979599        0.7042626600        0.4226507112
 H         -1.7143222482        2.3419384131        0.4961507107
 H          1.6365729575        3.6633403778        0.1754508842
 H          0.2781640340        3.3043395718        1.2670817676
 H         -0.0273024308        3.6474350401       -0.4619745322
 H          1.6094703220       -1.5977181685       -1.3721350954
 H         -0.6772420098       -2.3199729571       -0.6586114507
