  29
        -37.04812262
 C         -3.7983125108       -1.7209640747       -0.5246964018
 C         -2.6304307193       -1.9221378745        0.0796786877
 C         -1.6007439712       -0.9332674531        0.2363737951
 C         -0.3861302209       -1.0957957681        0.8520111274
 C          0.4201409926        0.0573026522        0.8554640728
 C          1.7981544335        0.0872569097        1.4407246732
 C          2.8808222343       -0.0335409321        0.3595948316
 C          2.8274956746       -1.3737683638       -0.3686454033
 C          3.9190889501       -1.4825083359       -1.4256996923
 C         -0.1880465496        1.1235474957        0.2267394063
 C          0.3288818060        2.4515591660        0.0463439298
 C         -0.2800846952        3.4219522176       -0.6307006869
 S         -1.7671021591        0.6876717349       -0.3653624903
 H         -4.5330439834       -2.5015099352       -0.6115100008
 H         -4.0508655201       -0.7639171285       -0.9505655705
 H         -2.3920365811       -2.8902619622        0.5027563491
 H         -0.0808036272       -2.0277532212        1.2961307019
 H          1.9020140250       -0.7415389389        2.1441353530
 H          1.9470504452        1.0175212217        1.9938559431
 H          3.8611368768        0.0824912232        0.8283465830
 H          2.7578912581        0.7735768666       -0.3660665423
 H          1.8505743840       -1.4883105621       -0.8433303275
 H          2.9425701082       -2.1835215805        0.3560911307
 H          3.8091714497       -0.6954778965       -2.1687110653
 H          3.8665094657       -2.4428521536       -1.9332374700
 H          4.9030724927       -1.3880803379       -0.9707478599
 H          1.2881472689        2.6390217614        0.5109096186
 H         -1.2326932395        3.2618830030       -1.1080904287
 H          0.1541327814        4.4010567744       -0.7291356840
  29
        -37.04787294
 C         -3.8946260455       -1.5726394037        0.7682730972
 C         -2.7889284282       -1.8654715363        0.0892084689
 C         -1.7031071434       -0.9565373979       -0.1515857227
 C         -0.5481483061       -1.2136852650       -0.8429041213
 C          0.3389791643       -0.1225109245       -0.9185297041
 C          1.6660940769       -0.2355052542       -1.6021733563
 C          2.6879743724       -0.9700315602       -0.7234388256
 C          3.0479789284       -0.1881702501        0.5366777701
 C          4.0425642601       -0.9491209703        1.4044029459
 C         -0.1456681067        0.9924253418       -0.2683931448
 C          0.4710932027        2.2825743977       -0.1292500955
 C         -0.0438408703        3.3048867978        0.5491103132
 S         -1.7115516950        0.6796595969        0.4314613239
 H         -4.6762026220       -2.2962083086        0.9173745647
 H         -4.0470182250       -0.5950860130        1.1951738378
 H         -2.6508898992       -2.8530297818       -0.3336221405
 H         -0.3414839710       -2.1694740019       -1.2935651738
 H          2.0527904354        0.7507914054       -1.8609241688
 H          1.5325358359       -0.7977855726       -2.5299247006
 H          3.5935795574       -1.1465458716       -1.3088145808
 H          2.2799228032       -1.9424844520       -0.4382261712
 H          2.1414613168        0.0096130888        1.1125813156
 H          3.4777869177        0.7758741956        0.2545258599
 H          3.6238869152       -1.9035983376        1.7163607972
 H          4.2895606597       -0.3759715609        2.2948732596
 H          4.9613520062       -1.1423595218        0.8542875825
 H          1.4270971195        2.3943006722       -0.6230262829
 H         -0.9908989242        3.2239956101        1.0565241912
 H          0.4646608348        4.2501068268        0.6182631892
  29
        -37.04782820
 C         -4.2677569111       -1.3957155388       -0.1721536400
 C         -3.0552750297       -1.7587346638        0.2375373881
 C         -1.9044983669       -0.9001441767        0.2731045054
 C         -0.6395995645       -1.2300172651        0.6875796758
 C          0.2864398274       -0.1733199506        0.6167593053
 C          1.7286046634       -0.3333459117        0.9844033498
 C          2.5847647693       -0.6155587502       -0.2559957605
 C          4.0604460007       -0.7789075355        0.0973047226
 C          4.9092058915       -1.0546464179       -1.1376087690
 C         -0.2778533543        0.9870384230        0.1298901282
 C          0.3611367347        2.2556707881       -0.0828698684
 C         -0.2290089144        3.3303444361       -0.6002499778
 S         -1.9672960262        0.7614741859       -0.2286944801
 H         -5.0941652513       -2.0839425948       -0.1757436465
 H         -4.4656252753       -0.3941584041       -0.5167139469
 H         -2.8729174517       -2.7695763218        0.5809883326
 H         -0.3825274786       -2.2139356699        1.0410819842
 H          1.8274513776       -1.1652176683        1.6850444998
 H          2.0960171255        0.5675068555        1.4806759169
 H          2.4680369139        0.2049959322       -0.9678540246
 H          2.2225156218       -1.5253835564       -0.7405182514
 H          4.1735178083       -1.6019016049        0.8070964869
 H          4.4173212462        0.1305746419        0.5868895315
 H          4.5836970140       -1.9697033676       -1.6277160817
 H          5.9564650393       -1.1645619093       -0.8657108982
 H          4.8231505550       -0.2368380700       -1.8499287692
 H          1.4020725086        2.3014487446        0.2093261555
 H         -1.2621872718        3.3118522208       -0.9055149799
 H          0.3007671437        4.2567394314       -0.7346778265
  29
        -37.04695688
 C         -3.0023524374       -2.8175158838       -0.0863739016
 C         -2.8576386096       -1.5620538803        0.3314957074
 C         -1.7459063697       -0.7051151606        0.0194588641
 C         -0.6284708329       -0.9462053652       -0.7387851271
 C          0.2562090254        0.1436226280       -0.8238489903
 C          1.5554581680        0.0813557509       -1.5659861433
 C          2.7430686007       -0.1367575714       -0.6185250574
 C          2.6721647781       -1.4805532395        0.1016160457
 C          3.8615623394       -1.6824403879        1.0318634826
 C         -0.1875405831        1.2420251351       -0.1158176510
 C          0.4490505775        2.5228501059        0.0156438564
 C          0.0028895181        3.5221555702        0.7727919354
 S         -1.7128530581        0.9119959140        0.6534629189
 H         -3.8631619504       -3.4016706864        0.1867496696
 H         -2.2718622334       -3.3017781747       -0.7108159681
 H         -3.6167821835       -1.1133950955        0.9592853153
 H         -0.4436393548       -1.8854907925       -1.2288030744
 H          1.7091741736        1.0069298715       -2.1256132146
 H          1.5147067999       -0.7412363692       -2.2829374157
 H          2.7657623451        0.6656422771        0.1222698986
 H          3.6690743987       -0.0865066971       -1.1965990262
 H          2.6485308367       -2.2855579812       -0.6369958533
 H          1.7470256228       -1.5323410812        0.6797706498
 H          4.7945092028       -1.6513720102        0.4726389138
 H          3.7950667916       -2.6440546680        1.5352795506
 H          3.8902083756       -0.9007933874        1.7880186226
 H          1.3572216107        2.6465788528       -0.5596465868
 H         -0.8951323822        3.4246522321        1.3603687333
 H          0.5202975628        4.4633598133        0.8294335026
  29
        -37.04545522
 C         -3.2167589397       -2.7007333143        0.2459241250
 C         -2.9813132527       -1.4096276796        0.4672012459
 C         -1.7884301413       -0.7043302437        0.0822666505
 C         -0.6711776821       -1.1498119428       -0.5743626880
 C          0.3132425718       -0.1633258991       -0.7773006056
 C          1.6184700394       -0.4812837250       -1.4394052837
 C          2.4346481523       -1.4953415697       -0.6257914284
 C          2.7344424340       -1.0419178728        0.8030664208
 C          3.6767479860        0.1535258158        0.8732686329
 C         -0.0593850954        1.0655381279       -0.2729658646
 C          0.6588414852        2.3095669409       -0.3106983031
 C          0.2660398297        3.4354240923        0.2797978235
 S         -1.6360538829        0.9834696536        0.4632234347
 H         -4.1342735888       -3.1638594115        0.5629709465
 H         -2.5070535624       -3.3354709729       -0.2556031307
 H         -3.7224830748       -0.8074587804        0.9768455580
 H         -0.5564958153       -2.1645395337       -0.9111036511
 H          2.2046101919        0.4239003218       -1.5892586422
 H          1.4171641927       -0.9121394555       -2.4247774903
 H          3.3749197495       -1.6861438857       -1.1486588070
 H          1.8834065482       -2.4370738660       -0.5813033487
 H          3.1870754369       -1.8797635365        1.3391496949
 H          1.7975801024       -0.7955037819        1.3075093924
 H          4.5923755257       -0.0485554531        0.3207882787
 H          3.9400503744        0.3630536414        1.9075104590
 H          3.2101565548        1.0438333162        0.4613963051
 H          1.5807820298        2.2995468877       -0.8773374325
 H         -0.6468212462        3.4834484798        0.8500828510
 H          0.8435762769        4.3401863292        0.2113941093
  29
        -37.04484676
 C         -3.0251044559       -2.8042763042       -0.0084961435
 C         -2.8296963456       -1.5369286028        0.3479758784
 C         -1.6778472201       -0.7460444120        0.0074895143
 C         -0.5637112303       -1.0736270763       -0.7202321400
 C          0.3710824876       -0.0287452648       -0.8489609761
 C          1.6504093827       -0.2121344588       -1.6036298265
 C          2.6448140374       -1.1467481547       -0.8995078162
 C          3.2501595612       -0.5756592710        0.3854612382
 C          2.3641701656       -0.7503934378        1.6135001269
 C         -0.0357905265        1.1265242657       -0.2129994967
 C          0.6491113330        2.3856644273       -0.1178403071
 C          0.2029182286        3.4478487277        0.5480347309
 S         -1.5852365125        0.9012997334        0.5514002708
 H         -3.9134907222       -3.3361350140        0.2825984239
 H         -2.3105434796       -3.3505334336       -0.5993371963
 H         -3.5748730941       -1.0246959351        0.9429615794
 H         -0.4145245157       -2.0436483605       -1.1599154168
 H          2.1314008218        0.7496752258       -1.7835707122
 H          1.4078910631       -0.6478416542       -2.5776568820
 H          3.4543592102       -1.3509440012       -1.6049728099
 H          2.1550932225       -2.0962695843       -0.6747722885
 H          3.4704922278        0.4847167862        0.2439993691
 H          4.1996000797       -1.0839266461        0.5730725178
 H          1.4361859826       -0.1965300263        1.5132145378
 H          2.8799179178       -0.3901264131        2.5010529474
 H          2.1226449971       -1.8010284330        1.7615027774
 H          1.5983422448        2.4388341354       -0.6342387367
 H         -0.7360757130        3.4279953356        1.0762000277
 H          0.7611974833        4.3663306269        0.5855124074
  29
        -37.04402261
 C         -4.1936689523       -1.6821899708        0.4612818560
 C         -2.9250284021       -1.9598325461        0.1737900639
 C         -1.8814895898       -0.9847147432        0.0204761995
 C         -0.5646734311       -1.2199498901       -0.2773964449
 C          0.2359784538       -0.0633999911       -0.3581267283
 C          1.6923249236       -0.1435583772       -0.6903762600
 C          2.5308625740       -0.3605875686        0.5760756479
 C          4.0353266570       -0.2815444371        0.3192312337
 C          4.5532745316       -1.4118124725       -0.5624683392
 C         -0.4821135412        1.0863078343       -0.1097445808
 C         -0.1172691497        2.4801695903       -0.0913061821
 C          1.0959853035        3.0055571916        0.0603230389
 S         -2.1602538287        0.7186337397        0.1987639025
 H         -4.9337599459       -2.4556733518        0.5641324937
 H         -4.5265671407       -0.6669971690        0.6021929716
 H         -2.6058192895       -2.9854771326        0.0353671292
 H         -0.1762206054       -2.2106254098       -0.4423932359
 H          2.0102905671        0.7695009286       -1.1961073123
 H          1.8453749273       -0.9818612341       -1.3724713903
 H          2.2854738248       -1.3362064443        1.0019659535
 H          2.2552678191        0.3950233066        1.3159875819
 H          4.5524582609       -0.3183315419        1.2812174118
 H          4.2738510263        0.6780633134       -0.1462933482
 H          4.2878109101       -2.3776120584       -0.1375415434
 H          5.6367147054       -1.3603117499       -0.6436497992
 H          4.1369269916       -1.3485411550       -1.5645318959
 H         -0.9639144912        3.1501145574       -0.1873712452
 H          1.9803212125        2.4157567359        0.2134103347
 H          1.2334378372        4.0733589590        0.0527858422
  29
        -37.04375390
 C         -3.1318509625       -2.7375821177        0.1581687534
 C         -3.0969729711       -1.4076633126        0.1105129014
 C         -1.9037692174       -0.6063202536        0.0756772031
 C         -0.5850578087       -0.9878899734        0.0773618944
 C          0.3237207606        0.0835254835        0.0393402739
 C          1.8196122842       -0.0531570370        0.0275352126
 C          2.3163807006       -1.4795104046        0.2521812732
 C          3.8394004675       -1.5595222755        0.3675064463
 C          4.5608133747       -1.2331502912       -0.9351626119
 C         -0.3128027117        1.3101253630        0.0029557610
 C          0.2923660829        2.6115565340       -0.0501729070
 C         -0.3747865413        3.7627360083       -0.0867642697
 S         -2.0408997923        1.1230026734        0.0228338599
 H         -4.0653629342       -3.2712521368        0.1821364455
 H         -2.2370161869       -3.3350986453        0.1748446694
 H         -4.0225950953       -0.8466352546        0.0959874434
 H         -0.2882561215       -2.0194797477        0.1047601467
 H          2.2382359308        0.5901764322        0.8076634299
 H          2.1911907058        0.3142705412       -0.9333882596
 H          1.9894007275       -2.1165509853       -0.5724223141
 H          1.8781242616       -1.8651248019        1.1758103486
 H          4.1091220733       -2.5733209079        0.6732080808
 H          4.1791274648       -0.8788621430        1.1518760863
 H          4.2027030390       -1.8729715365       -1.7390080760
 H          5.6309247958       -1.3921685546       -0.8227276125
 H          4.4037503499       -0.1970202068       -1.2236975911
 H          1.3743394061        2.6155564634       -0.0625871234
 H         -1.4519532613        3.7888103195       -0.0785102592
 H          0.1335572941        4.7096632155       -0.1266860204
  29
        -37.04225852
 C         -3.7405538617       -1.9781638829       -0.4443385654
 C         -2.5696829000       -2.0679641873        0.1800419211
 C         -1.5910883794       -1.0187372424        0.2534645622
 C         -0.3735438451       -1.0646228687        0.8780417397
 C          0.3912548182        0.1159946366        0.7680044132
 C          1.7092727360        0.2468367199        1.4677484259
 C          2.7769713122       -0.7438733565        0.9816647222
 C          3.3774444132       -0.4364716713       -0.3901857261
 C          2.4212459279       -0.6778095019       -1.5519146386
 C         -0.2640800128        1.0922595491        0.0515934469
 C          0.0899127809        2.4436607927       -0.3148646594
 C          1.3081223589        2.9311456358       -0.5289265659
 S         -1.8331874888        0.5370328546       -0.4768247300
 H         -4.4350975912       -2.7989477779       -0.4670422652
 H         -4.0362338559       -1.0752691635       -0.9529242030
 H         -2.2864521932       -2.9830137927        0.6855140230
 H         -0.0343681544       -1.9330123380        1.4165098386
 H          1.5322321996        0.0427144713        2.5294382807
 H          2.0824265583        1.2667252367        1.3891052096
 H          2.3538320802       -1.7502754808        0.9645445868
 H          3.5876566564       -0.7400444524        1.7152482819
 H          4.2544737355       -1.0759856115       -0.5229539811
 H          3.7283405832        0.5980657429       -0.4106737923
 H          2.0248071193       -1.6903898043       -1.5131073862
 H          2.9423165920       -0.5504561529       -2.4985618863
 H          1.5878481758        0.0174069173       -1.5270211597
 H         -0.7655392679        3.0917330632       -0.4668911567
 H          2.1983511737        2.3332858739       -0.4591873435
 H          1.4473673798        3.9618262031       -0.8064951973
