  54
        -60.20087685
 C         -5.7127234936       -2.6892952868        0.9180738746
 C         -5.5300331897       -1.6720795466       -0.2019896537
 C         -5.7346900069       -0.2271132337        0.2551194662
 C         -4.7654137671        0.2536501912        1.3377260544
 C         -3.2844891957        0.1684889871        0.9676998114
 C         -2.9171064951        1.0165551671       -0.2557673004
 C         -1.4287776107        1.0266598750       -0.4682116414
 C         -0.6646090853        1.9865295434        0.1800721116
 C          0.7160094313        2.0496574553        0.0675638396
 C          1.4736052949        3.1236752937        0.7922304147
 C          1.3611293152        1.1115454754       -0.7388191770
 C          2.8559059887        1.0823443850       -0.8955778875
 C          3.4955496910        0.1601258105        0.1493302948
 C          5.0154217735        0.1267370336        0.0137238912
 C          5.7074530557       -0.6809503795        1.1129323239
 C          5.3546647055       -2.1691294365        1.1400919006
 C          5.7592150217       -2.9069408584       -0.1307452355
 C          0.5976279923        0.1506103366       -1.3857629348
 C         -0.7824927067        0.0830065500       -1.2673259355
 C         -1.5395297329       -0.9834787600       -2.0036388277
 H         -5.6570019245       -3.7011291062        0.5220411729
 H         -6.6827969313       -2.5610079045        1.3939083256
 H         -4.9407028101       -2.5802387895        1.6754140734
 H         -6.2550544966       -1.8833326058       -0.9924166423
 H         -4.5362487961       -1.7858110649       -0.6375716679
 H         -6.7515805316       -0.1260359569        0.6440038921
 H         -5.6558303837        0.4286363242       -0.6145162175
 H         -4.9293462034       -0.3255694484        2.2486949306
 H         -5.0086251282        1.2943480318        1.5688660116
 H         -3.0024335107       -0.8701459011        0.7906915860
 H         -2.6961404944        0.5191365184        1.8197816033
 H         -3.2647573321        2.0390298875       -0.0884725651
 H         -3.4226898958        0.6282421443       -1.1390115459
 H         -1.1706605537        2.7165695926        0.7980154821
 H          0.8009838538        3.7094875962        1.4141355208
 H          1.9556471906        3.7976486892        0.0837428050
 H          2.2467897481        2.6970010200        1.4285582251
 H          3.2729416342        2.0852612526       -0.7969003127
 H          3.1092761314        0.7118602850       -1.8919711881
 H          3.0844240305       -0.8427599252        0.0245359807
 H          3.2270581485        0.5034138846        1.1510685233
 H          5.3936483432        1.1519488661        0.0571508666
 H          5.2842198418       -0.2746823386       -0.9648500704
 H          5.4493881168       -0.2459705802        2.0821420611
 H          6.7887727062       -0.5817788594        0.9859194211
 H          4.2833777112       -2.2916140537        1.3074295149
 H          5.8700517805       -2.6231850907        1.9903697806
 H          5.1816017176       -2.5618926675       -0.9842223294
 H          5.5874392369       -3.9751640494       -0.0174119748
 H          6.8150003380       -2.7502224911       -0.3423740722
 H          1.1028232414       -0.5742044606       -2.0105261620
 H         -0.8556988600       -1.6197209569       -2.5603262341
 H         -2.2442809204       -0.5418476279       -2.7081419116
 H         -2.1021346532       -1.6094290715       -1.3128225169
