  41
        -49.69923071
 C         -5.8307651366       -0.0388243044       -0.4668468450
 C         -4.8397720429        0.6702820537        0.0659576588
 C         -3.4662719765        0.2533008113        0.1264929881
 C         -2.4120012167        0.9474341336        0.6570545741
 C         -1.1736002257        0.2747823698        0.5893854433
 C          0.1047123714        0.9344222326        1.0030518728
 C          0.4744021816        2.0390198842        0.0057627705
 C          1.7902994736        2.7392403685        0.3471254216
 C          3.0102598649        1.8174006560        0.4104637963
 C          3.2561452151        1.0519758339       -0.8881535066
 C          4.5525594293        0.2416838957       -0.8692966912
 C          4.5025204785       -0.9490677614        0.0861944494
 C          5.7523503153       -1.8135573013       -0.0264058503
 C         -1.2851200151       -0.9607858575       -0.0032077350
 C         -0.3100015969       -1.9936430354       -0.2766485144
 C          0.7203294253       -2.3354966065        0.4895766706
 S         -2.9278975196       -1.2749109306       -0.4998375684
 H         -6.8424283744        0.3255872071       -0.4848816939
 H         -5.6543363005       -1.0088887628       -0.9018082278
 H         -5.0332334465        1.6437815617        0.4993847089
 H         -2.5228432061        1.9247944728        1.0946464366
 H          0.9056410764        0.2017583677        1.0328749394
 H         -0.0106839278        1.3681736915        1.9995103285
 H         -0.3219994295        2.7866826488       -0.0144665418
 H          0.5358355728        1.6051673479       -0.9938466258
 H          1.6847977354        3.2401442173        1.3131470100
 H          1.9703487322        3.5111291622       -0.4055275412
 H          2.8927254638        1.1157253394        1.2365072779
 H          3.8884886066        2.4306425502        0.6291596389
 H          3.2988189919        1.7682709306       -1.7127018491
 H          2.4251185513        0.3707808533       -1.0803880648
 H          5.3866383298        0.8922470211       -0.5952015748
 H          4.7444830668       -0.1317712497       -1.8785082051
 H          3.6209333532       -1.5528946848       -0.1422805781
 H          4.4070966272       -0.5948505117        1.1140238541
 H          5.8567222431       -2.2049872313       -1.0362210919
 H          5.7022678738       -2.6530834130        0.6633919782
 H          6.6410194048       -1.2307805422        0.2067765826
 H         -0.5029638609       -2.5577958507       -1.1817938048
 H          0.9261133577       -1.8631035460        1.4343211596
 H          1.3844432614       -3.1321645235        0.2009637726
