82
 energy: -97.866542963811 gnorm: 0.000049719141 xtb: 6.4.1 (23d549d)
C        -3.51337421060000    5.10846960360000    0.60028820770000
C        -2.23548005710000    4.75064134740000    0.65985276500000
C        -1.71610624180000    3.39115951460000    0.69118050570000
C        -2.52784509220000    2.29733520090000    0.98226524120000
C        -2.03527940560000    1.00358452840000    1.02723415360000
O        -2.77887992260000   -0.10198968370000    1.33130059550000
C        -4.18559653860000   -0.00779463660000    1.37793143190000
C        -4.83810054550000    0.19477109330000    0.00575612950000
C        -4.86558502410000   -1.07441157520000   -0.84627321410000
C        -3.47253870990000   -1.57527514340000   -1.22069222560000
C        -3.54179329860000   -2.80030989800000   -2.12844939670000
C        -2.16604863970000   -3.30894411440000   -2.56207912000000
C        -1.26985986410000   -3.78975381800000   -1.41922291530000
C        -1.86039115470000   -4.96936865150000   -0.64876738660000
C        -0.87209576630000   -5.60137062130000    0.33236868120000
C        -0.53794008530000   -4.69360817950000    1.51025943460000
C        -0.67253501790000    0.78105404790000    0.75420285070000
C        -0.13517676830000   -0.57227053230000    0.80621569500000
C         0.96099605140000   -0.99697848770000    0.18851941170000
C         0.14101030650000    1.87424447030000    0.46949929680000
C        -0.34657622910000    3.17018617920000    0.44246994190000
O         0.41376687410000    4.28137057600000    0.20368226500000
C         1.79362655970000    4.14092637940000   -0.05478429210000
C         2.08357375980000    3.72007511810000   -1.50055796140000
C         3.52086222610000    3.23160728480000   -1.69422635060000
C         3.71032222530000    1.79372363690000   -1.21441260970000
C         5.13770619990000    1.28589854620000   -1.40607750960000
C         5.26074688090000   -0.22028677910000   -1.16704514500000
C         4.95817282930000   -0.63972564110000    0.27031241000000
C         5.08079228030000   -2.14987165000000    0.45824056790000
C         4.71435136580000   -2.58152650260000    1.87622700920000
C         4.80005453460000   -4.09280300820000    2.05021687950000
H        -3.80154739300000    6.14539798380000    0.58010541880000
H        -4.32121479090000    4.39726456560000    0.55792596360000
H        -1.47111368380000    5.51504190030000    0.66585565640000
H        -3.56476084510000    2.48967927090000    1.20150358530000
H        -4.49291833450000    0.78905317470000    2.06797152000000
H        -4.50603363460000   -0.96347639240000    1.80331662030000
H        -4.29901328510000    0.97691581530000   -0.53286996150000
H        -5.86255150920000    0.53787820010000    0.16695801630000
H        -5.42951756840000   -0.86508039770000   -1.75931367360000
H        -5.39888883880000   -1.85980936730000   -0.30422930610000
H        -2.92729590720000   -1.82192073610000   -0.31135393060000
H        -2.92509954070000   -0.77755607730000   -1.72938974250000
H        -4.11078123750000   -2.54351211180000   -3.02656995850000
H        -4.08538254700000   -3.59893569870000   -1.62041521780000
H        -1.64796056430000   -2.50572537660000   -3.09248278190000
H        -2.30834563130000   -4.13169556580000   -3.26822743840000
H        -1.07421321320000   -2.95929049460000   -0.74190799350000
H        -0.31148948320000   -4.09626791450000   -1.84757479820000
H        -2.17826411120000   -5.73184575380000   -1.36517161750000
H        -2.74271457980000   -4.64469021590000   -0.09478521760000
H         0.04715516190000   -5.86228200230000   -0.19784307390000
H        -1.30494505390000   -6.52926703610000    0.71513598930000
H        -0.03456745670000   -3.79138825500000    1.17548139450000
H         0.11607305780000   -5.20742086350000    2.21177841460000
H        -1.44527514230000   -4.40499369520000    2.03690582140000
H        -0.72212621190000   -1.26263910290000    1.39694827400000
H         1.55254934220000   -0.35898080680000   -0.44551366280000
H         1.30572769860000   -2.01300664650000    0.27960401980000
H         1.18356782750000    1.67896939110000    0.28846565540000
H         2.24932182660000    3.44554012630000    0.65941097810000
H         2.21157276670000    5.13478676580000    0.13196679750000
H         1.88804443890000    4.57421869450000   -2.15114592070000
H         1.38769328840000    2.92815282610000   -1.78669548920000
H         4.20665091720000    3.89411259260000   -1.16123067870000
H         3.77165580890000    3.28195383910000   -2.75592353970000
H         3.02880700470000    1.14752208950000   -1.77424618610000
H         3.45257648280000    1.72754679530000   -0.15671622560000
H         5.80897326470000    1.82049862460000   -0.73027542820000
H         5.45657852160000    1.50322295650000   -2.42862036480000
H         6.27647515320000   -0.53483685340000   -1.41907923730000
H         4.57909981540000   -0.74342556710000   -1.84263314930000
H         3.94384718340000   -0.34151921290000    0.53948709690000
H         5.64626395750000   -0.13049895030000    0.94939691450000
H         6.10302705480000   -2.46495786810000    0.23532244850000
H         4.41910317880000   -2.65323152340000   -0.25109390900000
H         3.69865921950000   -2.24783234960000    2.10216258070000
H         5.38690933010000   -2.09519378710000    2.58664301250000
H         4.11788754100000   -4.59443014720000    1.36701806320000
H         4.53789708080000   -4.37736417780000    3.06663907090000
H         5.80888374160000   -4.44446174270000    1.84452734650000
