  22
        -29.44819832
 C          2.6004157507       -1.9148280279        0.1031783101
 C          1.4760025485       -0.9251965848        0.0393833376
 C          1.7352995901        0.4385266217        0.0493050079
 C          0.7088029788        1.3688931157       -0.0338989294
 C          1.0086491323        2.8373108811       -0.0017477694
 C         -0.5990608668        0.9150597114       -0.1274063006
 C         -0.8809928585       -0.4430649839       -0.1348623232
 C         -2.3082314454       -0.9228343204       -0.2426976282
 O         -3.2569434060       -0.0205687543        0.2757583585
 C          0.1600069691       -1.3561248486       -0.0500109064
 H          3.4359781035       -1.5171221559        0.6748373258
 H          2.9564541587       -2.1370746356       -0.9034857500
 H          2.2724256421       -2.8470094582        0.5573197760
 H          2.7576804271        0.7828722349        0.1222866286
 H          1.9306074503        3.0554436846       -0.5365145752
 H          1.1329708751        3.1701248585        1.0294829988
 H          0.1979198040        3.4089291544       -0.4467223879
 H         -1.4136167562        1.6215496742       -0.2009130516
 H         -2.4042495343       -1.9051523461        0.2451536410
 H         -2.5748833128       -1.0453326168       -1.2983115282
 H         -3.0190954661        0.1813769833        1.1876673744
 H         -0.0578557084       -2.4151836097       -0.0562548938
