  47
        -61.77639221
 C         -4.6268554718        3.7847242006       -0.3952810576
 C         -3.3548766924        3.8686658523       -1.2311355076
 C         -2.0776328527        3.8499306728       -0.3909344041
 C         -1.8423720074        2.5147770266        0.3140343100
 C         -0.5067036103        2.5150586000        1.0532049527
 C         -0.1526981113        1.2023143090        1.7760293961
 N          0.2705537513        0.1222087008        0.9046104561
 C         -0.6525068457       -0.8541174052        0.5184469899
 C         -2.0184251191       -0.7172606950        0.7796500552
 C         -2.9499498292       -1.6734630255        0.4116498759
 C         -2.5749811668       -2.8247849203       -0.2561580134
 C         -3.5633449035       -3.8692305595       -0.6727222877
 C         -1.2226471446       -2.9800202376       -0.5258686640
 C         -0.2881348342       -2.0348096002       -0.1421129352
 S          1.3874960364       -2.4636105780       -0.5020046152
 C          2.2003717888       -0.9222521863       -0.2146234169
 C          3.5097770200       -0.8637367255       -0.6629241521
 C          4.3082964069        0.2457999314       -0.4391840967
 C          5.7243173192        0.3069915700       -0.9218331722
 C          3.7372284269        1.2978446397        0.2580150707
 C          2.4234944546        1.2507645625        0.6888770887
 C          1.5974982740        0.1433421315        0.4626499405
 H         -5.5026884458        3.8960468494       -1.0304506146
 H         -4.6439708555        4.5749502628        0.3525276875
 H         -4.6995025802        2.8263916514        0.1121380666
 H         -3.3750894677        4.7951592422       -1.8099642730
 H         -3.3309518042        3.0373582042       -1.9393366508
 H         -2.1234664948        4.6497637148        0.3524594850
 H         -1.2267913758        4.0564189355       -1.0452515590
 H         -1.8521049314        1.7153175301       -0.4292216142
 H         -2.6522757431        2.3385248720        1.0237217195
 H         -0.5184343570        3.3125119890        1.8010242815
 H          0.2757649792        2.7485792384        0.3297586191
 H         -0.9980775493        0.8655353185        2.3762877757
 H          0.6623946028        1.3939316191        2.4816457916
 H         -2.3964288668        0.1510179406        1.2871750581
 H         -3.9891052738       -1.5027903660        0.6532402607
 H         -4.5672426208       -3.6005649759       -0.3537514193
 H         -3.3041687082       -4.8330480738       -0.2364551423
 H         -3.5608394305       -3.9837002266       -1.7561781880
 H         -0.8693179740       -3.8654180496       -1.0340727472
 H          3.9043871820       -1.7249436977       -1.1821650416
 H          6.0243197195       -0.6402459661       -1.3620451312
 H          6.3979874244        0.5399505613       -0.0983669399
 H          5.8342751392        1.0887964751       -1.6731757725
 H          4.3223695114        2.1805516323        0.4718506660
 H          2.0626380668        2.1119728902        1.2221421872
