  47
        -56.03008664
 C          1.7861772617       -3.7301845067        2.6670375721
 C          2.7028315424       -3.1872866929        1.8690216288
 C          2.6855553933       -1.8339039633        1.3835620021
 C          1.7861474817       -0.8236366621        1.6119231671
 C          2.0988805328        0.3837499294        0.9623211341
 C          1.2294813366        1.6002855607        1.0419077378
 C          0.3444604783        1.7467885057       -0.2035950432
 C         -0.6569170010        0.6028332070       -0.3376479738
 C         -1.5312735913        0.7633138900       -1.5784863038
 C         -2.4685633734       -0.4213086310       -1.8162893601
 C         -3.4911711941       -0.6720251657       -0.7050844982
 C         -4.4058774956        0.5103421180       -0.3802885435
 C         -5.2792557642        0.9384238907       -1.5575020105
 C         -6.2322669377        2.0843043899       -1.2126814681
 C         -7.3545100475        1.6738807528       -0.2662107683
 C          3.2577599968        0.2993548773        0.2176753617
 C          3.8778162169        1.3295033184       -0.5679990927
 C          4.9624315705        1.1659035739       -1.3214794215
 S          3.9586765453       -1.2887511209        0.3346338390
 H          1.8634864245       -4.7523136793        2.9927424004
 H          0.9333994348       -3.1769365810        3.0201862970
 H          3.5448905852       -3.7803661182        1.5360120650
 H          0.9181128030       -0.9411173141        2.2358361690
 H          1.8483631624        2.4939778142        1.1497414167
 H          0.5930989594        1.5243585744        1.9259842450
 H          0.9776044688        1.7787120732       -1.0932273851
 H         -0.1962003220        2.6946376250       -0.1429319963
 H         -1.2840577764        0.5751615272        0.5553172615
 H         -0.1175961888       -0.3452972636       -0.3983111691
 H         -0.8821060433        0.8642278858       -2.4525456552
 H         -2.1107646298        1.6848814219       -1.4989602195
 H         -1.8652118391       -1.3259327544       -1.9296124410
 H         -2.9949523715       -0.2647265791       -2.7599050069
 H         -2.9636489913       -0.9640152060        0.2053891319
 H         -4.1117438972       -1.5211321701       -1.0037003988
 H         -3.8088031938        1.3609264983       -0.0465025889
 H         -5.0465145398        0.2150643160        0.4530931743
 H         -5.8595382092        0.0810603097       -1.9072111493
 H         -4.6378780834        1.2624654802       -2.3791728500
 H         -6.6763115642        2.4577085580       -2.1388448527
 H         -5.6632472105        2.9039292672       -0.7672105190
 H         -7.9166107923        0.8406180310       -0.6827052324
 H         -8.0391563975        2.5047296138       -0.1102497556
 H         -6.9622991174        1.3742427071        0.7021070476
 H          3.3975798716        2.2979738898       -0.5181560230
 H          5.4575500211        0.2116218301       -1.3947714524
 H          5.3855937469        1.9770577622       -1.8869855566
