  23
        -38.06072388
 C         -4.0094484904        0.8337596067       -0.6697383792
 C         -2.9813461517        0.8521125432        0.1663339923
 C         -1.8985429677       -0.1347331771        0.1591228051
 C         -2.2037995703       -1.4675400081       -0.1056243396
 C         -1.2177139912       -2.4347026927       -0.1157256474
 C          0.0936186603       -2.0698953271        0.1104323559
 C          0.4280832227       -0.7371970158        0.3470678175
 C          1.8583011438       -0.4458257459        0.5162301098
 C          2.5380020640        0.4808491471       -0.1338365451
 F          2.0632766901        1.3374093919       -1.0309076936
 F          3.8477606492        0.6841981614        0.0120559990
 C         -0.5696250040        0.2404105333        0.4128885131
 C         -0.2392432772        1.6619021116        0.7539308149
 H         -4.7887228203        1.5752051687       -0.6239747654
 H         -4.1025530497        0.0923908802       -1.4457920757
 H         -2.9163754704        1.6404863984        0.9039189750
 H         -3.2325381080       -1.7456448270       -0.2773730776
 H         -1.4695781065       -3.4679052008       -0.3017546832
 H          0.8769427692       -2.8131950425        0.0876911367
 H          2.4261248310       -1.0946829535        1.1668515645
 H          0.7460359083        1.7394057931        1.2055772505
 H         -0.9631420201        2.0672520417        1.4575453816
 H         -0.2575716378        2.2829461191       -0.1410177451
