  20
        -30.39802979
 C          3.4474116418       -1.4890952532        0.0510083832
 C          2.9174681732       -0.2778056013       -0.0629530032
 C          1.4998447961        0.0515149333       -0.0255492947
 C          0.4699808217       -0.8899755116        0.1321194658
 C         -0.8429231831       -0.4600886220        0.1362724205
 C         -1.9317669842       -1.4252859390        0.2447155867
 C         -3.1194809307       -1.3273751660       -0.3397324848
 C         -1.0261309944        0.9474521385        0.0442856919
 N         -2.2539945097        1.5378630030        0.0746486608
 N          0.0041916570        1.7766222056       -0.1071533929
 N          1.2207641852        1.3443136627       -0.1616209101
 H          4.5126192225       -1.6383794037        0.0115233124
 H          2.8540929595       -2.3779035376        0.1867952910
 H          3.5502880756        0.5884404282       -0.1984522160
 H          0.6913013133       -1.9431255273        0.2212309773
 H         -1.6920785063       -2.3085616205        0.8255660019
 H         -3.3789795188       -0.5041794551       -0.9836174363
 H         -3.8602983715       -2.1014088400       -0.2298998076
 H         -3.0017614043        1.0456184208        0.5355027629
 H         -2.2299636273        2.5395167534        0.1820769921
