  21
        -34.73862799
 C          3.1046577806        1.9104299512        0.2339185861
 C          1.8123498344        1.8505246942       -0.0626798402
 C          0.9803642469        0.6533663953       -0.0497338539
 C          1.5151768356       -0.6293186719        0.0219363720
 C          0.6761568246       -1.7239006203        0.0026957095
 F          1.2136708904       -2.9646237801        0.0539926749
 C         -0.6938222435       -1.5923854900       -0.0752337535
 C         -1.2588864290       -0.3198334791       -0.1161969936
 C         -2.7208683608       -0.2107025743       -0.1738196361
 C         -3.4641247780        0.6590602637        0.5004193606
 C         -0.4181170950        0.8022379858       -0.1243257793
 O         -0.9139972232        2.0610421649       -0.2347210890
 H          3.6407589467        2.8429708576        0.1978981231
 H          3.6780518057        1.0491075478        0.5315380658
 H          1.2825013806        2.7548209820       -0.3271805207
 H          2.5803526754       -0.7807798893        0.0709869090
 H         -1.3218426767       -2.4692739500       -0.0848340778
 H         -3.2045309684       -0.9470300366       -0.8040666723
 H         -3.0476984010        1.3624487972        1.2042989321
 H         -4.5376389964        0.6608522114        0.4152004832
 H         -1.8717188342        2.0141686187       -0.3663243103
  21
        -34.73813409
 C          3.2798357655        1.7723373179       -0.2487921903
 C          1.9807986208        1.8307545214        0.0173942163
 C          1.0537754372        0.7056681212        0.0330094398
 C          1.4820028744       -0.6183372891        0.0136865532
 C          0.5534951549       -1.6381161129        0.0298245217
 F          0.9872663389       -2.9200427540        0.0134919550
 C         -0.8023426217       -1.3944937350        0.0765547281
 C         -1.2617196917       -0.0796660544        0.1081910348
 C         -2.6981846418        0.1952432484        0.1971150454
 C         -3.6468373388       -0.5538611461       -0.3477493726
 C         -0.3284749538        0.9675127413        0.0792291201
 O         -0.7210114228        2.2692470611        0.0615820681
 H          3.8899917607        2.6588276966       -0.2375743550
 H          3.7868082145        0.8551628282       -0.4955417068
 H          1.5226522184        2.7860699490        0.2316279436
 H          2.5316694642       -0.8587616741       -0.0031976104
 H         -1.4961192632       -2.2181400390        0.1163675676
 H         -2.9883642235        1.0688132832        0.7732045932
 H         -3.4166144265       -1.4230573477       -0.9396224541
 H         -4.6900919011       -0.3159585941       -0.2321049596
 H         -1.6844796655        2.3205353318        0.0499603884
  21
        -34.73699999
 C          2.0488995093        2.8048763724       -0.1041613771
 C          2.1882103639        1.4858732496       -0.0369796765
 C          1.1436198569        0.4696750647       -0.0012133370
 C          1.5468345311       -0.8628569548       -0.0896485005
 C          0.6188963415       -1.8810665087       -0.0470733893
 F          1.0419772713       -3.1637225867       -0.1218382043
 C         -0.7293227945       -1.6242489798        0.0756150463
 C         -1.1671818236       -0.3042683035        0.1374847376
 C         -2.6117435629       -0.0652338492        0.2440371671
 C         -3.2998075757        0.8605480175       -0.4142038899
 C         -0.2329587528        0.7443317402        0.1187304998
 O         -0.6397786019        2.0292808042        0.2621879210
 H          2.9146531282        3.4457320767       -0.1303687572
 H          1.0909649858        3.2878972585       -0.1372227973
 H          3.1890269450        1.0706526950       -0.0179779435
 H          2.5934270007       -1.1059364315       -0.1863157771
 H         -1.4372765804       -2.4374547167        0.1029137329
 H         -3.1358351260       -0.7521203720        0.8974253249
 H         -2.8477733259        1.5203554344       -1.1380424087
 H         -4.3657208701        0.9556466468       -0.2936829914
 H         -1.5928346006        2.0407555189        0.4370802190
