  22
        -34.10082890
 C          3.5032088288        0.6679672505       -0.3713950452
 C          2.7186990967       -0.2087664682        0.2441768994
 C          1.2625809854       -0.2978019199        0.1330573503
 C          0.6975121213       -1.5704820618        0.1147544533
 C         -0.6659808358       -1.7154883109       -0.0217881555
 F         -1.1984718631       -2.9618025448       -0.0530515203
 C         -1.5018772328       -0.6242715665       -0.1386577772
 C         -0.9681261068        0.6580173393       -0.0946784207
 C         -1.8450614551        1.8195548075       -0.2467625335
 C         -3.0969268045        1.8870327247        0.1864350918
 C          0.4231671381        0.8313584491        0.0635007612
 N          0.9480807197        2.1050887106        0.1503728984
 H          4.5732140663        0.6408120459       -0.2501150343
 H          3.1185411575        1.4083365127       -1.0522459495
 H          3.1696316405       -0.9802787068        0.8573886852
 H          1.3252563891       -2.4450357408        0.1864546994
 H         -2.5601275819       -0.7722108064       -0.2796658042
 H         -1.4170984268        2.6656956159       -0.7704591032
 H         -3.5585882825        1.0792431511        0.7287908211
 H         -3.7046100202        2.7607660283        0.0243432469
 H          0.3138846407        2.8146769348        0.4801673288
 H          1.8725659786        2.1570972340        0.5509829110
