  32
        -48.55865576
 C          3.6890440483       -1.8987359692        0.4273838188
 C          2.6576935090       -0.8540903449        0.1349978927
 C          2.7507475513        0.4413839801        0.6189506928
 C          1.7933225928        1.4113781184        0.3507788304
 C          1.9422462358        2.7992012529        0.8984337256
 C          0.6951345481        1.0665181789       -0.4394620432
 O         -0.2728195394        2.0024888771       -0.7469413502
 C         -1.3441671295        2.0610100582        0.1933036284
 C         -2.1012151469        0.7613893256        0.2633682925
 C         -3.0924213831        0.4747440137       -0.6665899133
 C         -3.7372479193       -0.7490561607       -0.6476261355
 C         -3.3929107022       -1.7007307888        0.2976646469
 C         -2.4032878250       -1.4239274483        1.2250664137
 C         -1.7591832825       -0.1993810596        1.2067382085
 C          0.5795022315       -0.2218765176       -0.9485353960
 C          1.5538153419       -1.1513644662       -0.6554873767
 F          1.4251455981       -2.4035317045       -1.1545493404
 H          4.4618645049       -1.5069823645        1.0827323095
 H          4.1497016835       -2.2406310112       -0.4987772949
 H          3.2257261948       -2.7639340190        0.8998493526
 H          3.6016444677        0.7086458492        1.2294893307
 H          2.9824094003        3.1145304994        0.8585770048
 H          1.6207138109        2.8350639226        1.9401875917
 H          1.3369542213        3.4959153402        0.3240954371
 H         -1.9834936063        2.8685615573       -0.1713136477
 H         -0.9558250351        2.3260421728        1.1865634637
 H         -3.3520546882        1.2143300288       -1.4101471017
 H         -4.5075475584       -0.9626089388       -1.3741356735
 H         -3.8935431802       -2.6575099782        0.3097066964
 H         -2.1285390393       -2.1644743579        1.9615505890
 H         -0.9821732900        0.0124167821        1.9282789905
 H         -0.2615716233       -0.4911830814       -1.5670525602
