  35
        -43.37586921
 C         -4.5527743593       -2.1299307552        0.6622291185
 C         -3.4021486559       -2.1981595212       -0.0019161201
 C         -2.4756848621       -1.1124808155       -0.1619226802
 C         -1.2824443847       -1.1369186155       -0.8373850575
 C         -0.5890011454        0.0870614416       -0.8311607648
 C          0.7506484915        0.2641716865       -1.4748921538
 C          1.8787480181        0.1087627545       -0.4475622102
 C          3.2514800237        0.2838606740       -1.0920093520
 C          4.4006233141        0.2568640697       -0.0840166841
 C          4.6115094359       -1.1098617166        0.5639934754
 C          5.8336856223       -1.1142489863        1.4742948382
 C         -1.2595178601        1.0663389307       -0.1287877818
 C         -0.8529453124        2.4260269505        0.0924104995
 C         -1.5193020505        3.3119323236        0.8286262379
 S         -2.7614889273        0.4620579154        0.5134507266
 H         -5.2082730265       -2.9781743528        0.7483790666
 H         -4.8703602865       -1.2175924868        1.1395639261
 H         -3.0975003906       -3.1228932205       -0.4764015647
 H         -0.9138482328       -2.0186115369       -1.3332779341
 H          0.8190053819        1.2483759671       -1.9435957715
 H          0.8726275655       -0.4880711421       -2.2570758605
 H          1.8024140467       -0.8793674754        0.0090625495
 H          1.7488732071        0.8513877032        0.3431875272
 H          3.2713300617        1.2426566738       -1.6171947020
 H          3.4055448918       -0.5013647261       -1.8362559870
 H          4.2142880126        1.0001935129        0.6948942205
 H          5.3213461324        0.5434983114       -0.5987877526
 H          4.7391683098       -1.8626459857       -0.2175567626
 H          3.7313411180       -1.3813639854        1.1489732744
 H          6.7318375877       -0.8712522147        0.9102710318
 H          5.9691452412       -2.0923079035        1.9302354349
 H          5.7198018069       -0.3787570103        2.2678350480
 H          0.0718414596        2.7140258636       -0.3900680119
 H         -2.4392286955        3.0513413751        1.3253833078
 H         -1.1659708536        4.3195758512        0.9578386333
  35
        -43.37508647
 C         -3.1619157800       -3.1970644974       -0.1464552547
 C         -3.1068308957       -1.9994223551        0.4318018526
 C         -2.2280865659       -0.9291673074        0.0445307804
 C         -1.2893499958       -0.8727030350       -0.9541363176
 C         -0.6109878079        0.3561879727       -1.0382987638
 C          0.4841168111        0.6162669905       -2.0260256703
 C          1.8698995532        0.5039818487       -1.3755944488
 C          2.1530813669       -0.9102671938       -0.8754696454
 C          3.5474309424       -1.0651240625       -0.2685319362
 C          3.7161685659       -0.3290410349        1.0590450374
 C          5.0817177857       -0.5984697364        1.6796112123
 C         -1.0335186478        1.2603363936       -0.0850543602
 C         -0.5720786710        2.6047929058        0.1212174215
 C         -0.9661324761        3.4034841458        1.1100447576
 S         -2.2815148863        0.5738802526        0.9141254932
 H         -3.8466980110       -3.9522216090        0.1965203499
 H         -2.5301562306       -3.4627730828       -0.9761270487
 H         -3.7604231582       -1.7739272722        1.2647069517
 H         -1.0888863720       -1.6946753269       -1.6179695344
 H          0.3693672766        1.6143973099       -2.4552626068
 H          0.4086747654       -0.1091602762       -2.8386695202
 H          1.9265296232        1.2062186080       -0.5428583414
 H          2.6290367837        0.7854895914       -2.1094741211
 H          2.0565904706       -1.6041815094       -1.7148393193
 H          1.4043669474       -1.1872184673       -0.1297455458
 H          4.2946365999       -0.7043033486       -0.9798472330
 H          3.7386860135       -2.1283057494       -0.1020018201
 H          2.9332949725       -0.6512551647        1.7496317834
 H          3.6015641885        0.7451695428        0.9050554130
 H          5.2124827064       -1.6616993493        1.8699071311
 H          5.1864938517       -0.0659614637        2.6220906981
 H          5.8752262411       -0.2715811985        1.0107970133
 H          0.1493321141        2.9599049572       -0.6030268718
 H         -1.6787791777        3.0746697878        1.8483750730
 H         -0.5885740726        4.4053995211        1.2121999738
  35
        -43.37283426
 C         -4.4663846539       -2.4494522356       -0.4999276656
 C         -3.2990267979       -2.3405643904        0.1282406715
 C         -2.4814440055       -1.1596891459        0.1504133001
 C         -1.2785619874       -0.9960662968        0.7863056141
 C         -0.6981336017        0.2780428888        0.6285863283
 C          0.6061866664        0.6273164748        1.2721362997
 C          1.7887361708        0.2294950175        0.3801482379
 C          3.1216973258        0.6370370885        1.0027221966
 C          4.3243836057        0.3405441209        0.1064685760
 C          4.5997490497       -1.1512893364       -0.0699438320
 C          5.8721591991       -1.3940732772       -0.8726207856
 C         -1.4702152119        1.1097991162       -0.1533069824
 C         -1.3106749318        2.4773038763       -0.5783177394
 C         -0.1896484563        3.1925286437       -0.6312599990
 S         -2.9306965679        0.3036134764       -0.6667314930
 H         -5.0370108733       -3.3608284093       -0.4816173516
 H         -4.8839534923       -1.6237595524       -1.0523053775
 H         -2.8923825260       -3.1793947784        0.6795810833
 H         -0.8185295094       -1.7783393919        1.3659017725
 H          0.6856231722        0.0909246143        2.2210422800
 H          0.6416087051        1.6965064175        1.4869596721
 H          1.6815869375        0.7028325666       -0.5986882249
 H          1.7616556028       -0.8504313034        0.2267389103
 H          3.2477473612        0.1215881328        1.9580388696
 H          3.0977604327        1.7103329956        1.2107385217
 H          5.2093185078        0.8075316058        0.5465149967
 H          4.1652840939        0.7963079906       -0.8738651961
 H          3.7604429697       -1.6243846782       -0.5822071521
 H          4.6974190788       -1.6175024844        0.9133800341
 H          5.7904460783       -0.9458057748       -1.8605136771
 H          6.0521540072       -2.4597958851       -0.9935399471
 H          6.7315004229       -0.9559923954       -0.3692158239
 H         -2.2338136113        2.9357522217       -0.9136537336
 H          0.7743717755        2.8010784957       -0.3656554259
 H         -0.2098217864        4.2148273313       -0.9683387295
  35
        -43.37281032
 C         -3.3324660389       -2.8128693795        1.0280834962
 C         -2.3496603152       -2.5128204982        0.1834524019
 C         -1.8392977022       -1.1909723007       -0.0519310407
 C         -0.8324562185       -0.8331202870       -0.9109366416
 C         -0.5349506758        0.5436131275       -0.9319641668
 C          0.5484067564        1.0944872600       -1.8050247959
 C          1.8746950296        1.2430570533       -1.0457197385
 C          2.4546167506       -0.1055825599       -0.6279977712
 C          3.7761125139        0.0558748262        0.1194486014
 C          4.4330594693       -1.2776637847        0.4774258991
 C          3.6495332455       -2.0729503702        1.5152926278
 C         -1.3355094511        1.2625908427       -0.0682019889
 C         -1.4460831885        2.6632380941        0.2465120917
 C         -0.6385617549        3.6638469810       -0.0990714203
 S         -2.4580053383        0.2109683085        0.7589683650
 H         -3.6744199702       -3.8234483591        1.1635672162
 H         -3.8232867898       -2.0499328345        1.6097265952
 H         -1.8659627499       -3.2910396983       -0.3940246567
 H         -0.3156225332       -1.5506783746       -1.5254039642
 H          0.2418342141        2.0614044465       -2.2075782989
 H          0.6996904932        0.4143799028       -2.6466460192
 H          1.7167300561        1.8522488426       -0.1533631835
 H          2.5918392968        1.7623081565       -1.6866501907
 H          2.6177412089       -0.7211840584       -1.5165191253
 H          1.7329833725       -0.6181962508        0.0092869480
 H          3.6057278647        0.6296833364        1.0335543804
 H          4.4659433211        0.6292914676       -0.5056787471
 H          5.4335656912       -1.0783461817        0.8690785777
 H          4.5478393490       -1.8773168555       -0.4286957893
 H          3.4948896708       -1.4775120872        2.4125833897
 H          4.1946589847       -2.9729470998        1.7912500780
 H          2.6782288412       -2.3713844076        1.1295492362
 H         -2.3119601993        2.8928539491        0.8572001076
 H          0.2566114220        3.5360091020       -0.6776197833
 H         -0.8621994399        4.6712094807        0.2083224348
  35
        -43.37256126
 C         -3.0055847645       -3.0596776565        0.1218488243
 C         -1.8777018676       -2.5103668976        0.5639526651
 C         -1.5098398020       -1.1322966922        0.3953007022
 C         -0.3634842668       -0.5234650913        0.8361683940
 C         -0.2586044987        0.8442012307        0.5151309510
 C          0.9476286933        1.6415163016        0.9003578707
 C          1.9707494044        1.7141106470       -0.2436626520
 C          2.5213989562        0.3485882809       -0.6558526715
 C          3.4592472618       -0.2650538294        0.3819376387
 C          3.9969385763       -1.6331345998       -0.0408054553
 C          2.9439399638       -2.7337348958        0.0268133101
 C         -1.3557531409        1.2993180551       -0.1872084489
 C         -1.7371272927        2.5860376920       -0.7085060996
 C         -1.0157054399        3.7017601964       -0.7952809308
 S         -2.5116894873        0.0132404884       -0.4355140491
 H         -3.2278136211       -4.1003599539        0.2772811337
 H         -3.7404582578       -2.4783734931       -0.4104491157
 H         -1.1484179406       -3.1083393590        1.0966062376
 H          0.3929855604       -1.0536367509        1.3887523019
 H          1.4117203172        1.1759213384        1.7712579257
 H          0.6498358247        2.6515622738        1.1866394926
 H          2.7968041991        2.3609558972        0.0623328160
 H          1.4911962745        2.1677103612       -1.1137358335
 H          3.0717828517        0.4650400721       -1.5929995594
 H          1.6847908850       -0.3242884018       -0.8480735062
 H          2.9440128603       -0.3724686693        1.3380564919
 H          4.3009747959        0.4151307584        0.5368562352
 H          4.8274760093       -1.9032319937        0.6161494927
 H          4.3893713929       -1.5674504832       -1.0581228364
 H          2.5558769863       -2.8263031021        1.0394678670
 H          3.3773871063       -3.6895854872       -0.2588832351
 H          2.1131603398       -2.5256395073       -0.6426651319
 H         -2.7557448960        2.6069017987       -1.0792850013
 H          0.0074776485        3.7777840024       -0.4793423966
 H         -1.4499226019        4.5969723360       -1.2067268965
  35
        -43.37158599
 C         -1.5028091397       -3.4787123208        0.5287834266
 C         -2.1495921611       -2.3253174046        0.6800475574
 C         -1.6731221048       -1.0428797294        0.2364709221
 C         -0.5386767526       -0.7153070208       -0.4604207929
 C         -0.3770276099        0.6614336344       -0.7081511237
 C          0.8225066966        1.1829241082       -1.4348103972
 C          1.9369932834        1.6044336097       -0.4644166663
 C          2.4839165758        0.4498011116        0.3756413166
 C          3.3251954361       -0.5387647300       -0.4296272769
 C          3.8411301912       -1.7039559873        0.4166303671
 C          2.7524990797       -2.7124764203        0.7665984170
 C         -1.4152253561        1.4132756718       -0.1953293434
 C         -1.7220793665        2.8199928058       -0.2107237793
 C         -0.9414968229        3.8411273520       -0.5578006073
 S         -2.5903406452        0.3869955843        0.5860266022
 H         -1.9190023629       -4.4036860051        0.8864837348
 H         -0.5419947936       -3.5392392714        0.0481651640
 H         -3.1111320226       -2.3086645698        1.1768959379
 H          0.1677663789       -1.4511815712       -0.8002358548
 H          0.5391758461        2.0346201121       -2.0553311754
 H          1.1974974094        0.4018066618       -2.0980438540
 H          1.5421201298        2.3651762429        0.2125655783
 H          2.7523368290        2.0529568738       -1.0375212972
 H          1.6488710346       -0.0677850010        0.8493804258
 H          3.1071291061        0.8648115753        1.1719499184
 H          4.1775815677       -0.0037544328       -0.8565544428
 H          2.7419468113       -0.9411562400       -1.2598321479
 H          4.2846910606       -1.3135046652        1.3352812243
 H          4.6296625370       -2.2198777432       -0.1368111775
 H          1.9545795307       -2.2483496052        1.3409204300
 H          3.1660630690       -3.5259724577        1.3584918635
 H          2.3248899516       -3.1369389594       -0.1400512659
 H         -2.7298955682        3.0381900728        0.1242507847
 H          0.0791419083        3.7320466420       -0.8724773183
 H         -1.3199775214        4.8485101612       -0.5241302753
  35
        -43.37096298
 C         -2.0943036189       -3.4590778686        0.0653050583
 C         -2.1414722340       -2.3155369744        0.7442986155
 C         -1.5508541012       -1.0737961122        0.3228737318
 C         -0.8518811586       -0.7688282940       -0.8151623338
 C         -0.4039188365        0.5664559038       -0.8862236597
 C          0.4641396826        1.0632014643       -2.0021382518
 C          1.7038028659        0.1920918627       -2.2536367595
 C          2.8561894322        0.4562057820       -1.2819566427
 C          2.5791932573        0.1151899016        0.1825522875
 C          2.3473882592       -1.3720504318        0.4367818703
 C          2.0742863937       -1.6486215065        1.9098704125
 C         -0.8019883580        1.3072068030        0.2048032725
 C         -0.6112041298        2.7005221959        0.5352133382
 C         -0.5859838192        3.7124968298       -0.3263141936
 S         -1.6743611791        0.3233099769        1.3474365952
 H         -2.5569836719       -4.3531492656        0.4438463076
 H         -1.5962762378       -3.5425383687       -0.8850469830
 H         -2.6511607702       -2.2777792788        1.6984786200
 H         -0.6734618488       -1.4871985471       -1.5954113493
 H          0.7938445952        2.0796461119       -1.7871754279
 H         -0.1353842307        1.0882451252       -2.9177177724
 H          2.0680640481        0.4101402454       -3.2611591097
 H          1.4350745655       -0.8633644781       -2.2296132257
 H          3.1244213128        1.5144406212       -1.3439012692
 H          3.7225008232       -0.1209186860       -1.6173487544
 H          1.7151000879        0.6801560826        0.5319850163
 H          3.4396668828        0.4388103588        0.7746381264
 H          3.2257202997       -1.9363317393        0.1136458103
 H          1.4927523593       -1.7191284054       -0.1449835718
 H          2.9126996187       -1.3268381023        2.5241984153
 H          1.9119423631       -2.7110632329        2.0770520157
 H          1.1853924686       -1.1126437492        2.2361188222
 H         -0.5332114040        2.9052765126        1.5965424557
 H         -0.7307166063        3.5764819041       -1.3837984934
 H         -0.4433883117        4.7245565911        0.0111851189
  35
        -43.37094998
 C         -4.0914354951       -2.9622890951       -0.4877543270
 C         -4.0564133718       -1.6318742031       -0.4952946719
 C         -2.8983576770       -0.8298302706       -0.2051328587
 C         -1.6249884553       -1.2037838156        0.1381394743
 C         -0.7351212268       -0.1322666337        0.3453027073
 C          0.6892338437       -0.3703028802        0.7364605832
 C          1.5684906910       -0.5701311127       -0.5045868304
 C          3.0287133235       -0.8734390543       -0.1682924762
 C          3.7754708258        0.3239126898        0.4168976582
 C          5.2382027506        0.0168084894        0.7423997028
 C          6.1020586056       -0.1881472627       -0.4966811666
 C         -1.3338795923        1.0950300007        0.1511748621
 C         -0.8517034841        2.4485519819        0.2568513916
 C          0.4090535396        2.8743480340        0.2362831403
 S         -3.0155215694        0.9002383780       -0.2670511299
 H         -4.9955753765       -3.4988013316       -0.7146351628
 H         -3.2252375235       -3.5572948029       -0.2560385172
 H         -4.9512028375       -1.0716635391       -0.7344700084
 H         -1.3262920350       -2.2312711561        0.2485159738
 H          0.7385295685       -1.2738292357        1.3494109395
 H          1.0510511240        0.4649299132        1.3352994083
 H          1.5151583313        0.3189164923       -1.1370715536
 H          1.1583555843       -1.4026637320       -1.0818896713
 H          3.5284372217       -1.1920073626       -1.0847831242
 H          3.0710501447       -1.7050450130        0.5395450141
 H          3.2810064628        0.6425376354        1.3369976540
 H          3.7349447823        1.1560199588       -0.2907507449
 H          5.2868403657       -0.8751852060        1.3713012847
 H          5.6474647261        0.8493694405        1.3199009108
 H          5.7852592568       -1.0641872192       -1.0565169093
 H          7.1422747624       -0.3284926034       -0.2114996641
 H          6.0405704770        0.6793690848       -1.1504727272
 H         -1.6445475698        3.1836173869        0.3351226213
 H          1.2522548277        2.2209312584        0.1143895501
 H          0.6315722024        3.9237149434        0.3283447149
  35
        -43.37085648
 C         -1.9036011184       -3.4313176086        0.6069317880
 C         -2.4280214115       -2.3596081278        0.0170112307
 C         -1.8724364396       -1.0337941497        0.0597982648
 C         -0.7501074091       -0.5662418297        0.6938894820
 C         -0.4967680634        0.8061416238        0.5064210121
 C          0.6996695306        1.4642326916        1.1182335767
 C          1.8882976398        1.5094849745        0.1456926081
 C          2.3914496420        0.1293697758       -0.2799790579
 C          3.0972447623       -0.6306405895        0.8413598569
 C          3.4963015054       -2.0515613910        0.4408075366
 C          4.5902634429       -2.0943555061       -0.6195430428
 C         -1.4488168357        1.4127079960       -0.2886581402
 C         -1.6503574136        2.7656288104       -0.7382090239
 C         -0.8215786328        3.8047335233       -0.6607733365
 S         -2.6579943600        0.2584999185       -0.7886769603
 H         -2.3739102800       -4.3957994191        0.5335922565
 H         -0.9937922051       -3.3833762785        1.1797924622
 H         -3.3442838955       -2.4529098974       -0.5517126085
 H         -0.1164772999       -1.1948979213        1.2940083028
 H          0.9848738822        0.9088093189        2.0131869411
 H          0.4462715692        2.4794405482        1.4280648628
 H          2.7059189324        2.0615354491        0.6158838677
 H          1.5852297111        2.0545279126       -0.7509771907
 H          3.0868689520        0.2647922999       -1.1102263427
 H          1.5501642086       -0.4627258643       -0.6470400305
 H          2.4370399230       -0.6942972099        1.7086064786
 H          3.9888332091       -0.0778886422        1.1478675809
 H          2.6144865395       -2.5815240489        0.0722012527
 H          3.8501400788       -2.5779634067        1.3310640316
 H          4.2429701961       -1.6685499860       -1.5571369628
 H          4.8932784149       -3.1220800543       -0.8071746456
 H          5.4628865276       -1.5351887571       -0.2882791713
 H         -2.6156390387        2.9165852446       -1.2082580351
 H          0.1649555543        3.7517290391       -0.2407097363
 H         -1.1225266948        4.7669874622       -1.0385172979
  35
        -43.37031900
 C         -4.1555182130       -2.6067111821        0.2747886787
 C         -2.8418909917       -2.4155913385        0.1893711307
 C         -2.2001229216       -1.1362871466        0.0683584851
 C         -0.8530031138       -0.8947362697       -0.0208595018
 C         -0.5070401305        0.4653112573       -0.1392241817
 C          0.9035880605        0.9696347772       -0.2016292002
 C          1.9407341602       -0.0146142674        0.3385044262
 C          3.3259572795        0.6261092100        0.3938126988
 C          4.3841442084       -0.2706843940        1.0385751586
 C          4.6628723960       -1.5799419161        0.2980098837
 C          5.1999315142       -1.3718909873       -1.1131636692
 C         -1.6202127676        1.2817793496       -0.1476327105
 C         -1.7696529442        2.7103675415       -0.2488850937
 C         -0.8898772544        3.5881832485       -0.7258523376
 S         -3.0864225241        0.3527457243        0.0151369543
 H         -4.5802491535       -3.5905954335        0.3649544433
 H         -4.8442541251       -1.7781642524        0.2567555754
 H         -2.1631331100       -3.2592686155        0.2080365356
 H         -0.1336648882       -1.6934391438        0.0007336660
 H          0.9617024289        1.8984615754        0.3731687678
 H          1.1532800299        1.2105486421       -1.2405691872
 H          1.9755151423       -0.8944311410       -0.3044804653
 H          1.6501763040       -0.3339344963        1.3421916958
 H          3.2637676562        1.5489154376        0.9771388991
 H          3.6397958627        0.9013623523       -0.6147081514
 H          4.0668475851       -0.5089305248        2.0570806366
 H          5.3174145449        0.2938882223        1.1089402997
 H          3.7546907141       -2.1836039375        0.2572263930
 H          5.3997372380       -2.1436857137        0.8756254020
 H          4.4507763558       -0.9158704763       -1.7551859576
 H          5.4843902268       -2.3255020989       -1.5525966402
 H          6.0767913280       -0.7279989473       -1.0951137638
 H         -2.7351795572        3.0718463162        0.0855236706
 H          0.0660048486        3.3062939022       -1.1263218568
 H         -1.1242668236        4.6386209644       -0.7496251544
