  22
        -36.98743704
 C         -3.4610873198       -1.0198843059       -0.2171572453
 C         -2.2127728649       -1.0258640209        0.2319658381
 C         -1.2968750495        0.1064287751        0.1301882856
 C         -1.7681491311        1.4233453277        0.1133505864
 N         -0.9948148343        2.4826156573       -0.0118998720
 C          0.3075368506        2.3041403906       -0.0984468514
 C          0.9261496592        1.0513362122       -0.0591731701
 C          2.3863439617        0.9822221275       -0.0797672598
 C          3.1162873244        0.0841521357        0.5685833753
 C          0.0920672705       -0.0723099683        0.0346530087
 C          0.6593627613       -1.4587230435       -0.0416341485
 O          0.5094891179       -2.2996845122        0.7980511909
 O          1.3361325081       -1.7263932764       -1.1757110275
 H         -4.0957004627       -1.8824988814       -0.1116630820
 H         -3.8915874971       -0.1697783333       -0.7201784125
 H         -1.8084508219       -1.9130835223        0.6977423366
 H         -2.8248659153        1.6272342003        0.2133890235
 H          0.9017381703        3.2038096327       -0.1907623678
 H          2.8707269124        1.7850641271       -0.6221613029
 H          2.6764361565       -0.6977252784        1.1645786703
 H          4.1919070304        0.1114102018        0.5401056858
 H          1.4168787268       -0.9558604625       -1.7530214671
  22
        -36.98723362
 C         -2.5038491183       -1.7542512991       -0.7649807042
 C         -2.5008209279       -0.6443240894       -0.0385466239
 C         -1.3752074465        0.2824378983        0.0725303873
 C         -1.6336573137        1.6537463661        0.1543247164
 N         -0.6944100998        2.5759443288        0.2086708315
 C          0.5660816452        2.1948698144        0.1659569928
 C          0.9775055482        0.8611326007        0.0748936194
 C          2.3912288031        0.5002946533        0.0580559032
 C          3.3536159070        1.2768364244       -0.4222433309
 C         -0.0305414443       -0.1146713603        0.0553188199
 C          0.3506140497       -1.5642999537        0.0425653962
 O          1.0534663857       -2.0695181767       -0.7848475048
 O         -0.1210680143       -2.2807241546        1.0838222468
 H         -3.3801527205       -2.3752986266       -0.8349299755
 H         -1.6458308056       -2.0769960255       -1.3306659730
 H         -3.4027618966       -0.3261186273        0.4700009835
 H         -2.6527730367        2.0170699939        0.1718685903
 H          1.2951689969        2.9898146960        0.2347407210
 H          2.6362705394       -0.4806715784        0.4410667970
 H          3.1537919783        2.2407148179       -0.8592721743
 H          4.3816305730        0.9593616091       -0.4160814356
 H         -0.7093853535       -1.7672774011        1.6529034190
  22
        -36.98719829
 C         -3.5231060392       -0.9055813926        0.0033881264
 C         -2.2680926547       -0.9522242321       -0.4238213392
 C         -1.2755029758        0.0935951309       -0.1724173953
 C         -1.6464619056        1.4397299984       -0.1325769411
 N         -0.7982337676        2.4253901485        0.0806674524
 C          0.4795204453        2.1418252704        0.2262219016
 C          1.0070853263        0.8477169172        0.1523494843
 C          2.4357920816        0.5985602946        0.3057477888
 C          3.3827434692        1.4659284185       -0.0277788355
 C          0.0892797547       -0.1977451316       -0.0248666134
 C          0.5690774141       -1.6159338043       -0.0725955841
 O          1.4532275730       -2.0001789377       -0.7827689966
 O         -0.0610795072       -2.4620163849        0.7677364218
 H         -4.2225127589       -1.6917793940       -0.2214097565
 H         -3.8938727995       -0.0900310643        0.6018773917
 H         -1.9244912009       -1.8006316038       -1.0028865799
 H         -2.6758496642        1.7296271860       -0.2913872093
 H          1.1248601314        2.9860831806        0.4240525138
 H          2.7111070638       -0.3738107919        0.6896286367
 H          3.1593345203        2.4260221537       -0.4617805311
 H          4.4247775890        1.2307442138        0.1004835448
 H         -0.7756671250       -2.0368177580        1.2613824096
  22
        -36.98640102
 C         -2.4206021071       -1.8520564063       -0.4623826546
 C         -2.4086270177       -0.7128921901        0.2165521676
 C         -1.3591460252        0.3036798562        0.1477807697
 C         -1.7243786050        1.6512936075        0.2181423965
 N         -0.8766675343        2.6516511867        0.0906880714
 C          0.3975408345        2.3725072790       -0.0952296331
 C          0.9145906639        1.0743134282       -0.1398712090
 C          2.3580322805        0.8875468496       -0.2648732723
 C          3.0724508596       -0.0304018070        0.3693241559
 C          0.0031119847        0.0170381846       -0.0234616559
 C          0.4861656846       -1.3997005734       -0.1103658315
 O          1.0182773191       -1.8680260842       -1.0741818585
 O          0.2862435382       -2.1354009537        1.0048989195
 H         -3.2467618879       -2.5380265566       -0.3867875919
 H         -1.6265201463       -2.1371443635       -1.1312990827
 H         -3.2568575514       -0.4421398446        0.8338332595
 H         -2.7605588667        1.9280331148        0.3623727228
 H          1.0562969157        3.2252517646       -0.1928639504
 H          2.8527193539        1.6168110608       -0.8933271314
 H          2.6357794601       -0.7505309742        1.0406204168
 H          4.1394289147       -0.0919750933        0.2443000617
 H         -0.2047822781       -1.6534336635        1.6832765847
  22
        -36.98481572
 C         -2.3513849918       -1.8589465758       -0.6800397017
 C         -2.4207017423       -0.7028511603       -0.0335683291
 C         -1.3638510876        0.3050923882        0.0290774770
 C         -1.7259241702        1.6531672518        0.0869230106
 N         -0.8598375053        2.6447083901        0.1430527327
 C          0.4237712287        2.3525272513        0.1328998232
 C          0.9374621301        1.0520182045        0.0609721446
 C          2.3924232792        0.8903760207        0.0829534893
 C          3.1004997740        0.0690506309       -0.6780417404
 C          0.0082528250        0.0042516698        0.0276975343
 C          0.4520011871       -1.4271794988        0.1174727577
 O          1.0356205576       -2.0261896814       -0.7382674432
 O          0.1477824713       -2.0189781932        1.2895403742
 H         -3.1894231180       -2.5342965866       -0.7025000726
 H         -1.4771897974       -2.1701923845       -1.2248374205
 H         -3.3445470502       -0.4128714602        0.4525136480
 H         -2.7697164394        1.9383441438        0.0930603521
 H          1.0976314818        3.1975589888        0.1854258744
 H          2.8997857794        1.5811264299        0.7470562528
 H          2.6452896058       -0.6035279904       -1.3828119512
 H          4.1755783478        0.0489097684       -0.6168021076
 H         -0.3497529453       -1.4410870948        1.8828668077
