  25
        -33.03813752
 C         -4.2389488818       -0.2877180938       -0.0792866847
 C         -3.1897019933        0.5160825286        0.0559484364
 C         -1.7863366381        0.1363066388        0.0217993634
 C         -1.3469948807       -1.1785891747       -0.1428152897
 C         -0.0050394592       -1.4846909485       -0.1433482128
 C          0.9732334384       -0.4943247418       -0.0067135427
 N          2.3124461855       -0.8034355435       -0.0062753789
 C          2.7909709363       -2.1510373206        0.1773149157
 C          0.5494510290        0.8468681944        0.1242020558
 C          1.4709249282        1.9774590518        0.2370046503
 C          2.6154489081        2.1374203310       -0.4175773686
 C         -0.8110154284        1.1208749566        0.1625872565
 H         -5.2450495192        0.0934138317       -0.0391609045
 H         -4.1447527931       -1.3485831489       -0.2353397196
 H         -3.3625033227        1.5754520119        0.2077584721
 H         -2.0634646776       -1.9772198928       -0.2569822102
 H          0.2935918383       -2.5152326776       -0.2532010928
 H          2.8939239891       -0.0848063428        0.4005809449
 H          2.4903875358       -2.7711789319       -0.6687382607
 H          2.4178807944       -2.6140702508        1.0997990481
 H          3.8783657800       -2.1308172900        0.2127991948
 H          1.1277562840        2.7717341453        0.8908895494
 H          2.9740183908        1.4228867321       -1.1392420054
 H          3.2136567215        3.0242940410       -0.2884234897
 H         -1.1211821882        2.1502567543        0.2861769568
  25
        -33.03809184
 C         -3.9628522339        1.0521645238       -0.1071011681
 C         -3.2591034119       -0.0640850487        0.0478134850
 C         -1.8108453478       -0.1965283173        0.0432288573
 C         -1.2381880909       -1.4567457769        0.2271836796
 C          0.1268473955       -1.6347019421        0.2034944751
 C          0.9969938998       -0.5559485681        0.0210163944
 N          2.3601480263       -0.7295668275       -0.0067191109
 C          2.9663546078       -2.0268301850       -0.1748606810
 C          0.4376811404        0.7335549815       -0.1281478201
 C          1.2423025544        1.9456831719       -0.2855246584
 C          2.3766679494        2.2321765329        0.3429327410
 C         -0.9427136991        0.8766203245       -0.1413151110
 H         -5.0392643881        1.0422651631       -0.0884251609
 H         -3.5051048183        2.0148188001       -0.2570208674
 H         -3.7909397589       -0.9970221028        0.1962480452
 H         -1.8793074276       -2.3144817677        0.3766185956
 H          0.5267853578       -2.6283263783        0.3293499328
 H          2.8572645810        0.0339806420       -0.4424812950
 H          2.7503634284       -2.6537214413        0.6918439521
 H          4.0450485090       -1.8995440988       -0.2402848144
 H          2.6184619809       -2.5462126649       -1.0769884675
 H          0.8120952506        2.6863364535       -0.9507115394
 H          2.8156912965        1.5733253237        1.0730950048
 H          2.8831932947        3.1695885440        0.1824104330
 H         -1.3457875696        1.8686793757       -0.2808704853
  25
        -33.03780443
 C         -4.1509436098       -0.0894071095       -0.1136099888
 C         -3.0477269398        0.6468878790       -0.0346839844
 C         -1.6749673312        0.1674716663       -0.0084327166
 C         -1.3313618977       -1.1854989284       -0.0323181225
 C         -0.0147096000       -1.5857030939       -0.0039975131
 C          1.0290596029       -0.6561983130        0.0458309151
 N          2.3400841406       -1.0528261495       -0.0286095872
 C          2.7636712254       -2.4151536719        0.1694035393
 C          0.7015509231        0.7176731407        0.0901164217
 C          1.7384412749        1.7428504495        0.2057455545
 C          1.6872142372        2.9426568221       -0.3571015986
 C         -0.6340397158        1.0914533553        0.0569705028
 H         -5.1271408412        0.3644821117       -0.1280040811
 H         -4.1323817141       -1.1643315416       -0.1681302286
 H         -3.1451037594        1.7254749092        0.0140280665
 H         -2.1035194474       -1.9382422294       -0.0691963303
 H          0.2111018109       -2.6401393512       -0.0243412237
 H          3.0206093373       -0.3471652833        0.2005749822
 H          2.3569201797       -3.0527581585       -0.6179016713
 H          2.4493121339       -2.8171498912        1.1407632001
 H          3.8492832894       -2.4558182667        0.1108466546
 H          2.5970113689        1.4942215319        0.8218880308
 H          0.8711845275        3.2369154366       -0.9950058424
 H          2.4667529789        3.6712498286       -0.2122509940
 H         -0.8721632433        2.1444002229        0.1107284848
  25
        -33.03779886
 C         -3.7692413165        1.2543214401       -0.0767662233
 C         -3.1497424833        0.0789590459       -0.0623396223
 C         -1.7151150609       -0.1562191937       -0.0222181340
 C         -1.2366334341       -1.4679905707       -0.0383563459
 C          0.1124659405       -1.7406701542       -0.0028471274
 C          1.0562356270       -0.7109915350        0.0479176041
 N          2.4011539860       -0.9724265249       -0.0202567755
 C          2.9595395879       -2.2839365032        0.1864417820
 C          0.5911666619        0.6236175544        0.0867356539
 C          1.5217702869        1.7464188313        0.2058407217
 C          1.3595017459        2.9313534966       -0.3671138914
 C         -0.7733018471        0.8679038802        0.0456045442
 H         -4.8433752905        1.3205585987       -0.1086164129
 H         -3.2413898453        2.1923266353       -0.0578653942
 H         -3.7488917493       -0.8242501361       -0.0860946219
 H         -1.9393339049       -2.2888660046       -0.0774461346
 H          0.4405879464       -2.7678788398       -0.0184134731
 H          3.0054060888       -0.2003415537        0.2086050635
 H          2.6209210470       -2.9636835831       -0.5978339422
 H          2.6849161885       -2.7101849938        1.1595475973
 H          4.0438583930       -2.2153455572        0.1300474935
 H          2.3932242784        1.5871906289        0.8334154945
 H          0.5262712916        3.1387007057       -1.0168937235
 H          2.0614693829        3.7344224965       -0.2192455840
 H         -1.1050777940        1.8928974706        0.0977538002
  25
        -33.03327621
 C         -3.8923973100        1.1115126894        0.4496354053
 C         -3.2810357084        0.0286114755       -0.0174757669
 C         -1.8463500548       -0.1987271257       -0.1036973024
 C         -1.3756276539       -1.4402198755       -0.5359789034
 C         -0.0254910390       -1.7030906400       -0.5797282748
 C          0.9265912428       -0.7431206930       -0.2268317411
 N          2.2744408128       -1.0888043000       -0.2813206836
 C          3.1305914876       -0.8799987055        0.8698464583
 C          0.4722349223        0.5456537724        0.1190637371
 C          1.3374446206        1.7106330992        0.3105971551
 C          2.4559085383        1.9591659132       -0.3584790298
 C         -0.8971074812        0.7698989871        0.2099314644
 H         -4.9664729330        1.1811860256        0.4736182724
 H         -3.3578838692        1.9662805407        0.8271439345
 H         -3.8854926015       -0.7977368061       -0.3734946118
 H         -2.0791497083       -2.2126507150       -0.8132518543
 H          0.3164258519       -2.6835141638       -0.8868600803
 H          2.3884637102       -2.0292868688       -0.6440273681
 H          3.0295152159        0.1407328785        1.2278569460
 H          4.1644920937       -1.0452242353        0.5674793075
 H          2.8924786289       -1.5642033421        1.6948295659
 H          0.9513212500        2.4554912553        0.9975043846
 H          2.8506782706        1.2632615293       -1.0785060914
 H          3.0082104593        2.8724816257       -0.2132836782
 H         -1.2264679843        1.7568482298        0.4992632072
  25
        -33.03316480
 C         -3.8778312733        1.1503876544       -0.4265415060
 C         -3.2782453641        0.0536079645        0.0236272394
 C         -1.8472158475       -0.1959651050        0.0969643247
 C         -1.3919704604       -1.4435221238        0.5336435720
 C         -0.0486200329       -1.7326178491        0.5664734526
 C          0.9161448852       -0.7886565347        0.1956266529
 N          2.2420934878       -1.1674280813        0.1956809892
 C          3.1956675462       -0.7012935892       -0.7859234127
 C          0.4791986066        0.5054040199       -0.1492893428
 C          1.3749950455        1.6485929749       -0.3437302019
 C          2.3918372726        1.9491652478        0.4523896325
 C         -0.8856094193        0.7549120286       -0.2313871840
 H         -4.9509512726        1.2356852332       -0.4412237498
 H         -3.3340283661        2.0020604984       -0.7975074433
 H         -3.8923980399       -0.7672158086        0.3760370999
 H         -2.1070375928       -2.2007236623        0.8232064520
 H          0.2806139273       -2.7167750670        0.8743354672
 H          2.3710938202       -2.1312642005        0.4667130829
 H          2.6855143096       -0.2517124821       -1.6396452192
 H          3.7990928937       -1.5367257089       -1.1408157597
 H          3.8635874700        0.0528926278       -0.3588468948
 H          1.0996641894        2.3266177818       -1.1435047059
 H          2.6521740880        1.3275632713        1.2925528027
 H          2.9847076448        2.8362503696        0.3052947212
 H         -1.1974981175        1.7465919969       -0.5238624647
