  42
        -59.77291326
 C          1.9538189503        4.1488154237       -2.2933423992
 C          0.6323078507        4.1392500815       -2.4151924246
 C         -0.3152623139        3.3873232188       -1.5993156823
 C         -1.6803027631        3.5516757207       -1.8320854140
 C         -2.6318543786        2.8637053822       -1.0876177514
 C         -4.0449169172        3.0766340063       -1.3836987687
 C         -5.0695471755        2.3637798557       -0.9324587241
 C         -2.2079598838        1.9936772176       -0.0819115676
 C         -0.8541045833        1.8148661315        0.1619777744
 O         -0.3246141104        1.0078636798        1.1277683368
 C         -1.1607471862        0.1356116069        1.8559967192
 C         -1.6188189308       -1.0783161206        1.0397993137
 C         -0.4534456730       -1.8434546193        0.4117441816
 C          0.4379444920       -2.5411258730        1.4365749070
 C          1.5178850441       -3.3778455218        0.7540871074
 C          2.4287624587       -4.0651243330        1.7792027035
 C          3.5043116430       -4.8687552072        1.0748949473
 O          3.5208486066       -6.0622381996        1.0095172545
 O          4.4653903171       -4.1318464145        0.4864662728
 C          0.0840004934        2.5106936652       -0.5976750844
 H          2.5714863405        4.7414040855       -2.9462733385
 H          2.4743591244        3.5766223677       -1.5449914188
 H          0.1741310995        4.7450708185       -3.1876970941
 H         -2.0062398649        4.2264669791       -2.6110953099
 H         -4.2404500569        3.9006399358       -2.0590702032
 H         -4.9518882375        1.5191139322       -0.2750681980
 H         -6.0814969681        2.5979432278       -1.2150895593
 H         -2.9483840351        1.4813719568        0.5091876735
 H         -2.0291119387        0.6702653551        2.2612248371
 H         -0.5451912203       -0.1885935204        2.6987954872
 H         -2.2789083180       -0.7421065724        0.2378168866
 H         -2.1897720355       -1.7360584517        1.6978475953
 H          0.1470512577       -1.1460874687       -0.1761488339
 H         -0.8593024687       -2.5917878495       -0.2725967394
 H         -0.1725760952       -3.1872696778        2.0711697846
 H          0.9161749138       -1.7964450434        2.0750916452
 H          2.1067223002       -2.7307683918        0.0975518404
 H          1.0497193487       -4.1413936423        0.1296075180
 H          1.8409109794       -4.7460330204        2.3949618620
 H          2.8928222767       -3.3172239350        2.4283727711
 H          4.3303189003       -3.1835297283        0.6136365635
 H          1.1261488153        2.3487955845       -0.3767966283
