  25
        -45.72853642
 C         -3.5275383944       -2.6557312563       -0.0130829319
 C         -2.2047498588       -2.5387297577        0.0033113589
 C         -1.4373827086       -1.3019123205       -0.0229936090
 C         -2.0228668171       -0.0363848416       -0.0840978078
 C         -1.2767188105        1.1282850261       -0.1107442677
 C         -1.9437578836        2.4275964472       -0.2241643822
 C         -3.1024069169        2.7329562499        0.3431858162
 C          0.1352003708        1.0579237620       -0.0612919163
 N          0.8887972299        2.1945485429       -0.0903267611
 C          0.7238713808       -0.2168226182       -0.0154540914
 C          2.2155139302       -0.3339716368        0.0265729017
 F          2.7580728655        0.2859277932        1.1053513606
 F          2.6551450441       -1.5953214813        0.0738333451
 F          2.8227421594        0.2325951419       -1.0399559049
 C         -0.0477664015       -1.3680585733        0.0027762707
 H         -4.0018060870       -3.6214830258        0.0103409843
 H         -4.1898424720       -1.8081560983       -0.0513020172
 H         -1.6008012177       -3.4368440924        0.0419940079
 H         -3.0962533814        0.0491176247       -0.1378435686
 H         -1.4409223157        3.1649443239       -0.8382324204
 H         -3.6274113693        2.0383177137        0.9770730624
 H         -3.5624220091        3.6964931203        0.2065985736
 H          0.4356251374        3.0637007614        0.1277667125
 H          1.8709421498        2.1490441246        0.1138556280
 H          0.4425968981       -2.3291517175        0.0394435610
  25
        -45.72851097
 C         -2.2668168411       -3.4956487096       -0.4278556497
 C         -2.5638902692       -2.2169909726       -0.2270084579
 C         -1.6237363341       -1.1136990869       -0.0907103055
 C         -2.1117603199        0.1807901342        0.0963751307
 C         -1.2843505035        1.2813878622        0.2368332244
 C         -1.8542705092        2.6086065844        0.4784443322
 C         -2.9885280795        3.0503237492       -0.0471267954
 C          0.1175712709        1.1087988473        0.1779680182
 N          0.9561026242        2.1756108460        0.3183600876
 C          0.6079150024       -0.1971557221        0.0043942099
 C          2.0874107192       -0.4200020852       -0.0525257086
 F          2.6795175125        0.2611270892       -1.0662829729
 F          2.7299313248       -0.0083835726        1.0630989268
 F          2.4329089969       -1.6996570647       -0.2253761067
 C         -0.2434325201       -1.2823531715       -0.1263511816
 H         -3.0392584352       -4.2398101586       -0.5166293688
 H         -1.2561053029       -3.8553997806       -0.5124505214
 H         -3.6049030022       -1.9266758441       -0.1540029784
 H         -3.1795785897        0.3319006557        0.1581572721
 H         -1.2978802514        3.2459445109        1.1550824491
 H         -3.5648157247        2.4595597648       -0.7390416467
 H         -3.3760689794        4.0275046579        0.1843503010
 H          0.5718624961        3.0944461454        0.1902638251
 H          1.9328489058        2.0759970407        0.1079049879
 H          0.1812266734       -2.2640869623       -0.2569914354
  25
        -45.72834641
 C         -2.1496517914       -3.6929470806        0.0082692504
 C         -2.5179365422       -2.4210468199       -0.0922197405
 C         -1.6437929541       -1.2569730617       -0.0841074996
 C         -2.2008068834        0.0186781842       -0.1788407701
 C         -1.4411415956        1.1770612689       -0.1589869808
 C         -2.1440446602        2.4611322705       -0.2189610966
 C         -1.8449672603        3.5514919242        0.4760028379
 C         -0.0323456087        1.0819613643       -0.0970578579
 N          0.7492498390        2.2000686739       -0.1054692115
 C          0.5275002430       -0.2058053803       -0.0054190959
 C          2.0165733390       -0.3479289796        0.0689737117
 F          2.5612982345        0.3000827533        1.1211864721
 F          2.4317939326       -1.6154068467        0.1615469693
 F          2.6442417372        0.1649468583       -1.0202945577
 C         -0.2585139297       -1.3456089344        0.0123017478
 H         -2.8766852425       -4.4863414760       -0.0076014541
 H         -1.1228812852       -3.9985986077        0.1106074951
 H         -3.5710105510       -2.1870059439       -0.1902709300
 H         -3.2755787371        0.1145942076       -0.2500009099
 H         -3.0161601473        2.4659932291       -0.8621328401
 H         -1.0361530720        3.5802546631        1.1866649857
 H         -2.4378497841        4.4467560115        0.3921112684
 H          0.3114204892        3.0487631033       -0.4256808062
 H          1.7300358436        2.1115395796       -0.3069450120
 H          0.2204205390       -2.3077538145        0.0901994269
