  26
        -39.88314138
 C         -4.6476603035        0.1814029681        0.5175925041
 C         -3.7418260213       -0.7704840880        0.3286879689
 C         -2.3268219640       -0.5859224229        0.0300165260
 C         -1.5188293616       -1.7109932803       -0.1454849679
 C         -0.1811241136       -1.5757298232       -0.4505492237
 C          0.4099459600       -0.3241183781       -0.5672765516
 C          1.8656704958       -0.2389673903       -0.9312946842
 C          2.7681771971       -0.4062997931        0.2853020362
 O          2.4103263949       -0.7804652576        1.3604700729
 O          4.0647150809       -0.1106185712        0.0545512907
 C         -0.3750863507        0.8156587013       -0.3630097556
 C          0.1528513759        2.1842995665       -0.4228171224
 C          1.2548466019        2.6088266125        0.1777007978
 C         -1.7320579540        0.6653907208       -0.0952876108
 H         -5.6741178431       -0.0593612302        0.7351793223
 H         -4.4128513831        1.2307050553        0.4670058178
 H         -4.0512213705       -1.8066298123        0.3967049124
 H         -1.9498306955       -2.6972609010       -0.0508811497
 H          0.4241380352       -2.4585205873       -0.5986970918
 H          2.0862618409        0.7169375373       -1.4141488777
 H          2.1176325089       -1.0487622549       -1.6247116052
 H          4.2291712106        0.1785039790       -0.8522949503
 H         -0.4676550495        2.8892601858       -0.9641847230
 H          1.8650669045        1.9577425731        0.7811445487
 H          1.5660893662        3.6388405696        0.1236903669
 H         -2.3256136508        1.5569397586        0.0401346072
