20
 energy: -30.398238769256 gnorm: 0.000106805821 xtb: 6.4.1 (23d549d)
C         3.18863330460000   -1.69764010970000    0.02764065040000
C         2.78745433300000   -0.43291580800000    0.00169560060000
C         1.40855798710000    0.03412775170000   -0.01793601890000
C         0.28803909880000   -0.81048636360000   -0.09389892690000
C        -0.97314602140000   -0.25030386650000   -0.09149996970000
C        -2.19257431110000   -1.04207732820000   -0.21273245620000
C        -2.33238001820000   -2.27892586870000    0.24584822460000
C        -1.01558979120000    1.16812852860000    0.00589210380000
N        -2.18712402830000    1.86443301010000    0.01617286550000
N         0.09272188270000    1.90261332120000    0.03621719220000
N         1.26413483300000    1.35476939680000    0.01829288360000
H         4.23446415010000   -1.95154557470000    0.04505699560000
H         2.50377140060000   -2.52926326490000    0.03422935150000
H         3.50874172930000    0.37271202740000    0.00317095700000
H         0.40639062150000   -1.87822066590000   -0.19273863090000
H        -3.01856433550000   -0.55611991800000   -0.71697285800000
H        -1.54084711830000   -2.78523369650000    0.77270341600000
H        -3.25103268150000   -2.82660850930000    0.12439244140000
H        -3.02323774700000    1.41010187440000    0.33890529260000
H        -2.09310476210000    2.84636190870000    0.21764419630000
