20
 energy: -39.121682358414 gnorm: 0.000047556080 xtb: 6.4.1 (23d549d)
C         0.56515057630000   -3.18301201170000    0.08932422090000
C         0.44418098550000   -1.95741666690000    0.57941756540000
C        -0.62358762210000   -1.02126716890000    0.23459424630000
C        -1.91095758240000   -1.48948922430000   -0.02820922740000
C        -2.95895278100000   -0.62472747270000   -0.27397159050000
C        -2.75132457950000    0.74477579050000   -0.24637338510000
C        -1.47929371210000    1.20972982580000    0.01328399850000
F        -1.27086504880000    2.54442031320000    0.03374305950000
C        -0.39276014280000    0.36451347370000    0.23777906300000
C         0.91588205040000    0.97694072500000    0.46067957940000
C         2.06106158130000    0.57320331090000   -0.06271423470000
F         2.25219002350000   -0.44859364210000   -0.88695571300000
F         3.22421621040000    1.17983844880000    0.15653166670000
H         1.36641542270000   -3.83336569280000    0.39344623230000
H        -0.11033322790000   -3.57197697920000   -0.65365992280000
H         1.17178959060000   -1.59061756150000    1.29255267340000
H        -2.08880510840000   -2.55335356170000   -0.01282411080000
H        -3.94566667740000   -1.01252428680000   -0.47461536270000
H        -3.55094163130000    1.44655193880000   -0.42037584890000
H         0.94273627550000    1.88527429100000    1.04529409790000
