24
 energy: -38.038610312841 gnorm: 0.000018885780 xtb: 6.4.1 (23d549d)
C         2.61624493430000    2.68130445960000   -0.23487789810000
C         2.56810265380000    1.41826332580000    0.17101484210000
C         1.39799916890000    0.56952468410000    0.07757476450000
C         0.06087971740000    1.00154719370000    0.03346607470000
C        -0.74436462950000   -0.12241106840000    0.04078478510000
C        -2.18557113970000   -0.29854689660000    0.01102705440000
O        -2.72581631430000   -1.38499105690000    0.03029391190000
O        -2.83963240650000    0.87390323600000   -0.03895871420000
C        -4.25825807640000    0.82772824230000   -0.07156011080000
N         0.07080756290000   -1.21593909700000    0.09160391500000
C         1.37138071340000   -0.83424386150000    0.10264855420000
C         2.42146306900000   -1.82115945650000    0.12108052800000
C         3.67630220680000   -1.64049211810000   -0.28160543400000
H         3.50380537900000    3.27896076680000   -0.11872132860000
H         1.77549111360000    3.15870222800000   -0.70846600630000
H         3.43792219490000    0.96395432370000    0.62735160730000
H        -0.28585603810000    2.01449780300000    0.02452165390000
H        -4.63777782650000    1.41273933190000    0.76641074250000
H        -4.59817765180000   -0.20705771820000    0.00551558840000
H        -4.59841016080000    1.26366116670000   -1.01172059050000
H        -0.27820415110000   -2.16203557850000    0.08677936900000
H         2.11307704890000   -2.79774407510000    0.47758352240000
H         4.01741155490000   -0.70801801710000   -0.69430384030000
H         4.39817422850000   -2.43690626860000   -0.22758681710000
