23
 energy: -36.361117724882 gnorm: 0.000139363895 xtb: 6.4.1 (23d549d)
C        -4.17044864430000   -1.17029181230000   -0.22162954130000
C        -3.27691105210000   -0.20537193530000   -0.04425919090000
C        -1.82762261970000   -0.36704626510000    0.00650759570000
C        -1.17837364670000   -1.60673262220000   -0.02344733110000
C         0.20080590440000   -1.62581689480000   -0.02348036080000
C         0.91264320860000   -0.42957891360000    0.02001611380000
C         2.40122295270000   -0.50424914470000   -0.04402029670000
N         2.97491658470000    0.36572458860000   -0.91367881570000
O         3.04986248560000   -1.30198113640000    0.59721258330000
C         0.18010112500000    0.76547090980000    0.13678544580000
C         0.83040137230000    2.05922756830000    0.34445797300000
C         0.20120325950000    3.21639828780000    0.18354095780000
N        -1.14621602820000    0.76846228860000    0.10701682900000
H        -5.22529192670000   -0.95678706550000   -0.24690980230000
H        -3.89683564900000   -2.20395446180000   -0.35044439060000
H        -3.59645725170000    0.82136651140000    0.07110826460000
H        -1.73912583800000   -2.52653394560000   -0.04712925010000
H         0.74829067540000   -2.55646123890000   -0.06240218610000
H         2.43286530940000    0.99260154990000   -1.48070540710000
H         3.97397776700000    0.33724249370000   -1.03392953620000
H         1.86321695860000    2.02670266910000    0.66334685890000
H        -0.82820626250000    3.23889065190000   -0.12983766560000
H         0.68834655740000    4.15974305940000    0.36101847950000
