  19
        -26.71013171
 C          3.7454185759        0.5976290554       -0.0055032330
 C          2.8337165136       -0.3681725312       -0.0007968280
 C          1.3900302386       -0.1949369943        0.0010905290
 C          0.5528198650       -1.3149473650        0.0020713974
 C         -0.8164922473       -1.1550098839        0.0024777916
 C         -1.3482498263        0.1381834379        0.0018666261
 C         -2.7740580262        0.4370898102        0.0009247269
 C         -3.7669749805       -0.4442665016       -0.0054226746
 N         -0.5516644337        1.2106168169        0.0023486851
 C          0.7513917025        1.0504315601        0.0019956166
 H          4.7978605300        0.3714166080       -0.0069526962
 H          3.4867151103        1.6422950895       -0.0081489641
 H          3.1607349099       -1.4017650609        0.0012336919
 H          0.9852973010       -2.3068637987        0.0020909202
 H         -1.4649888374       -2.0166937324        0.0033630630
 H         -2.9857516715        1.4977698916        0.0051413882
 H         -3.6043548758       -1.5089229656       -0.0105116925
 H         -4.7955540040       -0.1266366883       -0.0061419152
 H          1.3224453662        1.9692938721        0.0027315487
