19
 energy: -26.710131708105 gnorm: 0.000045565260 xtb: 6.4.1 (23d549d)
C         3.74541857590000    0.59762905540000   -0.00550323300000
C         2.83371651360000   -0.36817253120000   -0.00079682800000
C         1.39003023860000   -0.19493699430000    0.00109052900000
C         0.55281986500000   -1.31494736500000    0.00207139740000
C        -0.81649224730000   -1.15500988390000    0.00247779160000
C        -1.34824982630000    0.13818343790000    0.00186662610000
C        -2.77405802620000    0.43708981020000    0.00092472690000
C        -3.76697498050000   -0.44426650160000   -0.00542267460000
N        -0.55166443370000    1.21061681690000    0.00234868510000
C         0.75139170250000    1.05043156010000    0.00199561660000
H         4.79786053000000    0.37141660800000   -0.00695269620000
H         3.48671511030000    1.64229508950000   -0.00814896410000
H         3.16073490990000   -1.40176506090000    0.00123369190000
H         0.98529730100000   -2.30686379870000    0.00209092020000
H        -1.46498883740000   -2.01669373240000    0.00336306300000
H        -2.98575167150000    1.49776989160000    0.00514138820000
H        -3.60435487580000   -1.50892296560000   -0.01051169250000
H        -4.79555400400000   -0.12663668830000   -0.00614191520000
H         1.32244536620000    1.96929387210000    0.00273154870000
