29
 energy: -37.047872944508 gnorm: 0.000029497841 xtb: 6.4.1 (23d549d)
C        -3.89462604550000   -1.57263940370000    0.76827309720000
C        -2.78892842820000   -1.86547153630000    0.08920846890000
C        -1.70310714340000   -0.95653739790000   -0.15158572270000
C        -0.54814830610000   -1.21368526500000   -0.84290412130000
C         0.33897916430000   -0.12251092450000   -0.91852970410000
C         1.66609407690000   -0.23550525420000   -1.60217335630000
C         2.68797437240000   -0.97003156020000   -0.72343882560000
C         3.04797892840000   -0.18817025010000    0.53667777010000
C         4.04256426010000   -0.94912097030000    1.40440294590000
C        -0.14566810670000    0.99242534180000   -0.26839314480000
C         0.47109320270000    2.28257439770000   -0.12925009550000
C        -0.04384087030000    3.30488679780000    0.54911031320000
S        -1.71155169500000    0.67965959690000    0.43146132390000
H        -4.67620262200000   -2.29620830860000    0.91737456470000
H        -4.04701822500000   -0.59508601300000    1.19517383780000
H        -2.65088989920000   -2.85302978180000   -0.33362214050000
H        -0.34148397100000   -2.16947400190000   -1.29356517380000
H         2.05279043540000    0.75079140540000   -1.86092416880000
H         1.53253583590000   -0.79778557260000   -2.52992470060000
H         3.59357955740000   -1.14654587160000   -1.30881458080000
H         2.27992280320000   -1.94248445200000   -0.43822617120000
H         2.14146131680000    0.00961308880000    1.11258131560000
H         3.47778691770000    0.77587419560000    0.25452585990000
H         3.62388691520000   -1.90359833760000    1.71636079720000
H         4.28956065970000   -0.37597156090000    2.29487325960000
H         4.96135200620000   -1.14235952180000    0.85428758250000
H         1.42709711950000    2.39430067220000   -0.62302628290000
H        -0.99089892420000    3.22399561010000    1.05652419120000
H         0.46466083480000    4.25010682680000    0.61826318920000
