  24
        -33.66467875
 C          1.5867858876        3.2867352482        0.0665557483
 C          0.4008684197        2.7000269571       -0.0390575648
 C          0.1284493354        1.2675481339        0.0123868402
 C         -1.1945699892        0.8352740204       -0.0144650708
 C         -1.5225071750       -0.5172372992        0.0407107782
 C         -2.8986643222       -1.0015605003        0.0168890733
 C         -3.9935435211       -0.2777320427       -0.1800492048
 C         -0.4862388334       -1.4472731966        0.1191323170
 C          0.8389922360       -1.0395245616        0.1400411384
 C          1.9484807329       -2.0606123865        0.2272833964
 O          3.1639318093       -1.6336479625       -0.3394667514
 C          1.1411597223        0.3110771812        0.0890093897
 H          1.6865259458        4.3576300236        0.0182708614
 H          2.5007739085        2.7362015410        0.2083982234
 H         -0.4789889113        3.3187582386       -0.1704175050
 H         -1.9807058413        1.5730981944       -0.0688258568
 H         -2.9988397634       -2.0695302835        0.1702645560
 H         -3.9692508976        0.7850232396       -0.3494784890
 H         -4.9702402380       -0.7305159536       -0.1821517284
 H         -0.7186861473       -2.5026504140        0.1604368485
 H          1.6180729306       -3.0044239167       -0.2328789218
 H          2.1768655810       -2.2624252164        1.2796749226
 H          3.0053956356       -1.3887142031       -1.2580894806
 H          2.1774934720        0.6104127496        0.1120268958
  24
        -33.66455159
 C          0.4918466785        3.8116607571       -0.0329993897
 C          1.1039529725        2.6397438911        0.0843202185
 C          0.4805106299        1.3209431178        0.0665682497
 C         -0.8955196691        1.1313756177       -0.0238933559
 C         -1.4585197672       -0.1427006109       -0.0332314608
 C         -2.9099241295       -0.2660070077       -0.1225062107
 C         -3.6213993740       -1.3798302339       -0.0017408998
 C         -0.6112501327       -1.2486019022        0.0344728317
 C          0.7614988407       -1.0837826966        0.1245851155
 C          1.6698868645       -2.2875702267        0.2073011440
 O          2.9566022492       -2.0689916001       -0.3199142406
 C          1.2987487623        0.1938856326        0.1451722992
 H          1.0441523096        4.7354180699       -0.0085153781
 H         -0.5731207077        3.9058419572       -0.1586126997
 H          2.1806610755        2.6223525711        0.2037981704
 H         -1.5507979925        1.9873131527       -0.0811452851
 H         -3.4292315178        0.6693966577       -0.2936261355
 H         -3.1744783406       -2.3414398731        0.1836708637
 H         -4.6951129698       -1.3686676343       -0.0790647448
 H         -1.0204915045       -2.2470696355        0.0122836474
 H          1.1903098525       -3.1463247309       -0.2868387718
 H          1.8310464952       -2.5517432873        1.2583087854
 H          2.8685065178       -1.7777783829       -1.2344675415
 H          2.3706737731        0.3100499482        0.2231959609
  24
        -33.66452292
 C          0.1674985092        3.6780798307       -0.1135773897
 C          0.8792595441        2.5752936019        0.0833063725
 C          0.3841558857        1.2025279941        0.0776659314
 C         -0.9697011907        0.8878846963        0.0148031511
 C         -1.4071515572       -0.4340849821        0.0115081996
 C         -2.8181741651       -0.8010114469       -0.0510480255
 C         -3.8554059713        0.0241494972       -0.1210697900
 C         -0.4551900920       -1.4528968925        0.0669404650
 C          0.8984143165       -1.1628851922        0.1345966287
 C          1.9154521610       -2.2766997378        0.2081564539
 O          3.1779381605       -1.9333558516       -0.3104547903
 C          1.3097012392        0.1599842737        0.1443170222
 H          0.6273118223        4.6512904649       -0.0937392332
 H         -0.8915335065        3.6639855619       -0.3064564998
 H          1.9446319392        2.6651379692        0.2585163405
 H         -1.6948012856        1.6836732902       -0.0232118743
 H         -3.0020196923       -1.8687820015       -0.0372478281
 H         -3.7515716545        1.0953526102       -0.1393838419
 H         -4.8642556154       -0.3492290304       -0.1629775186
 H         -0.7781557890       -2.4850183238        0.0612323495
 H          1.5196770420       -3.1708097956       -0.2974801166
 H          2.0962839495       -2.5368144883        1.2569623394
 H          3.0668608954       -1.6438346761       -1.2230631002
 H          2.3661814768        0.3806026873        0.2056986245
