  26
        -32.77136226
 C          3.6093286459        1.2314789231       -0.4378765980
 C          2.8653900249        0.3379703036        0.1975523905
 C          1.4011524142        0.2903115570        0.1319157869
 C          0.6878991077        1.4859387823        0.1879788125
 C         -0.6881830904        1.4855768501        0.1907453702
 C         -1.4020600443        0.2898587844        0.1405888926
 C         -2.8660279882        0.3420648548        0.2104003478
 C         -3.6085259012        1.2304922328       -0.4335205395
 C         -0.6997154635       -0.9177202923        0.0518383761
 C         -1.4266882595       -2.2253625255       -0.0752489023
 C          0.6982448259       -0.9168851267        0.0441456251
 C          1.4284287907       -2.2219981774       -0.0920916398
 H          4.6819191844        1.2497139778       -0.3426382625
 H          3.1755249751        1.9687092648       -1.0930935694
 H          3.3425558816       -0.3989134866        0.8315018777
 H          1.2277178910        2.4182101475        0.2630503140
 H         -1.2280738794        2.4177613771        0.2666726721
 H         -3.3447252920       -0.3849111553        0.8545955971
 H         -3.1737453233        1.9582766139       -1.0985490942
 H         -4.6807513921        1.2538771060       -0.3354766649
 H         -2.5023160117       -2.0862409838       -0.0906924113
 H         -1.1694446397       -2.8891405248        0.7501239882
 H         -1.1440141039       -2.7254745321       -1.0014896605
 H          1.0630257054       -2.7726628584       -0.9578511542
 H          1.2664580546       -2.8454779446        0.7877398815
 H          2.4948892708       -2.0702087781       -0.2213483920
