32
 energy: -39.099063862771 gnorm: 0.000050875053 xtb: 6.4.1 (23d549d)
C        -3.52517710900000    1.43239343760000    0.61487851870000
C        -2.36706501980000    1.70585146500000    0.03248448400000
C        -1.19359261960000    0.82941546470000   -0.04136278220000
C         0.04566851810000    1.41597082740000    0.21749259280000
C         1.23369491490000    0.70706173630000    0.21231335740000
C         2.53138849780000    1.43297598170000    0.43869498680000
C         3.20639178980000    1.74165569690000   -0.89875081930000
C         1.18970119070000   -0.65308834160000   -0.11049744130000
C         2.38355466420000   -1.51410638390000   -0.15508394690000
C         3.16612128170000   -1.77549222680000    0.87845413910000
C        -0.03461050750000   -1.22621181830000   -0.42881953410000
C        -1.23145668550000   -0.52471932110000   -0.38740921950000
C        -2.49342085040000   -1.25600774980000   -0.75468637820000
C        -2.93336596670000   -2.20549027330000    0.36134922900000
H        -4.32347954240000    2.15553226440000    0.64324554860000
H        -3.71881505460000    0.49497410150000    1.10590299980000
H        -2.21426768850000    2.69036210970000   -0.39596709690000
H         0.07220889220000    2.47219597440000    0.45142512600000
H         3.20795268310000    0.83245887340000    1.04559557510000
H         2.33639941250000    2.36736875790000    0.96881974110000
H         3.43913751450000    0.81770974050000   -1.42340378290000
H         4.13072839860000    2.29286832830000   -0.74096604580000
H         2.54838654960000    2.33772202490000   -1.52755242420000
H         2.56817517570000   -1.99707117080000   -1.10828885420000
H         2.98453251400000   -1.34870025240000    1.85144669630000
H         4.01094222560000   -2.43912719020000    0.79929605340000
H        -0.05459563110000   -2.27033040510000   -0.71214534790000
H        -2.30919501400000   -1.84372645620000   -1.65830902920000
H        -3.29153078340000   -0.54568517510000   -0.97167580780000
H        -2.16737427670000   -2.95495575840000    0.54712249180000
H        -3.85545144100000   -2.71322135180000    0.08646107270000
H        -3.09958223030000   -1.66171326920000    1.28856559580000
