  32
        -38.31975501
 C         -2.0612443227        2.5097837676       -0.0068920898
 C         -1.3072073409        1.2096184842        0.0033967732
 C          0.0786704044        1.2110307705        0.0003346422
 C          0.8185170501        0.0376012705        0.0023515326
 C          2.3393746598        0.0105033420        0.0006015049
 C          2.9546787198        1.4124809847        0.0044595826
 C          2.8318846701       -0.7285388508        1.2528556820
 C          2.8276889063       -0.7203600895       -1.2580398458
 C          0.1097372227       -1.1590665639        0.0004026543
 C         -1.2721570382       -1.2033500873        0.0033818817
 C         -1.9878839450       -2.5247139875       -0.0070296708
 C         -1.9993460836       -0.0060587440        0.0131690266
 N         -3.3877953806       -0.0268559008       -0.0450049220
 H         -1.3709792020        3.3477471158       -0.0588301503
 H         -2.6609206566        2.6234606104        0.8987269053
 H         -2.7293109674        2.5602644340       -0.8665967923
 H          0.5743053310        2.1686001019       -0.0041776864
 H          2.6571126079        1.9673019520        0.8912969433
 H          2.6598584761        1.9704046754       -0.8812173897
 H          4.0402791094        1.3329591173        0.0059842046
 H          2.4766957968       -0.2247315149        2.1495242949
 H          3.9198230197       -0.7488381675        1.2752534297
 H          2.4717818767       -1.7532786692        1.2738010219
 H          2.4630776299       -0.2147558393       -2.1497837566
 H          2.4730779754       -1.7469764099       -1.2810804803
 H          3.9155575663       -0.7343458564       -1.2879341603
 H          0.6426423954       -2.0987473693       -0.0041501955
 H         -1.2733831992       -3.3420906350       -0.0602470544
 H         -2.6548598393       -2.5940198408       -0.8662231370
 H         -2.5828792823       -2.6563958112        0.8991790331
 H         -3.8161609299       -0.8736515996        0.2928809841
 H         -3.8412779009        0.8072125209        0.2918710460
