  20
        -26.43757480
 C         -3.6902761207        0.5052922195        0.0673685586
 C         -2.4520893225        0.9747221271       -0.0236618201
 C         -1.2195101364        0.1945662053       -0.0202286017
 C         -1.2018669069       -1.2008017961       -0.0125699984
 C         -0.0000172016       -1.8834069375       -0.0093358802
 C          1.2018260758       -1.2007829120       -0.0111477233
 C          1.2194836374        0.1945879404       -0.0190459919
 C          2.4520005698        0.9748303443       -0.0215718571
 C          3.6904598656        0.5052115482        0.0652509490
 C         -0.0000177453        0.8678846651       -0.0278553275
 H         -4.5408010841        1.1653337032        0.0579593550
 H         -3.9121628116       -0.5442165658        0.1568749563
 H         -2.3042758627        2.0453054861       -0.1032271422
 H         -2.1273934832       -1.7548813160       -0.0152764674
 H         -0.0000041837       -2.9641733887       -0.0068002575
 H          2.1273301730       -1.7548947518       -0.0123649924
 H          2.3038903414        2.0457400160       -0.0965317186
 H          3.9127057001       -0.5446145765        0.1503492283
 H          4.5408309400        1.1654599160        0.0575402752
 H         -0.0000329179        1.9500554871       -0.0360149674
