  20
        -34.89531118
 C         -3.6780113227        1.0980384087       -0.0277067967
 C         -2.8825950310        0.0346947385        0.0005014610
 C         -1.4276770053        0.0499644273        0.0028076635
 C         -0.6626089759        1.2168804619        0.0029576090
 C          0.7127098932        1.1531437776        0.0064365701
 F          1.3937301022        2.3202858711        0.0068438628
 C          1.4276830600       -0.0500117605        0.0082988373
 C          2.8826146934       -0.0348966182        0.0116296894
 C          3.6778103726       -1.0976118918       -0.0378738921
 C          0.6626512557       -1.2169307377        0.0094069596
 C         -0.7126778764       -1.1531896437        0.0070799611
 F         -1.3936416086       -2.3203641326        0.0092207584
 H         -4.7484631175        0.9894406547       -0.0272190349
 H         -3.3063604211        2.1078444412       -0.0533113807
 H         -3.3218282077       -0.9538152423        0.0220166038
 H         -1.1347324707        2.1854319196        0.0020959013
 H          3.3219262334        0.9528820597        0.0548076941
 H          3.3058464039       -2.1063638044       -0.0886365477
 H          4.7482913261       -0.9894782609       -0.0314528461
 H          1.1348550396       -2.1854337765        0.0150642658
