  16
        -24.66394663
 C         -3.6525808906       -0.2200505180        0.0010166435
 C         -2.5401025583        0.5094056234       -0.0003972009
 C         -1.2044615471       -0.0253508643       -0.0005292995
 C         -0.7703484444       -1.3312784095       -0.0007420157
 N          0.5560021891       -1.5115122815       -0.0003876915
 C          1.2152324826       -0.3967755107        0.0000309233
 C          2.6475836328       -0.3112441047        0.0005179007
 C          3.3377993666        0.8253988866        0.0002934945
 S          0.1779539328        1.0261040418        0.0000338214
 H         -4.6228882833        0.2441019532        0.0011625909
 H         -3.6329689409       -1.2958812564        0.0018505971
 H         -2.6023530834        1.5896134824       -0.0012031255
 H         -1.4084031502       -2.1960187469       -0.0011989044
 H          3.1429690882       -1.2722787725        0.0010834034
 H          2.8454262712        1.7844291954       -0.0001896401
 H          4.4131642349        0.8321052847        0.0005374593
