  26
        -46.99868366
 C         -3.1371155316       -2.0258061855       -0.6353616139
 C         -1.9959324891       -2.0949905574        0.0389937792
 C         -0.9738053294       -1.0480726512        0.0510374922
 C          0.3656116751       -1.4266032206        0.0603119153
 C          1.3964667717       -0.5022666926       -0.0375714973
 C          2.7839914459       -1.0549225783        0.0535093592
 O          3.0651278729       -2.1571097188       -0.3267772359
 O          3.7066294028       -0.2724774937        0.6392775827
 C          1.1026751768        0.8626043271       -0.1971023551
 C          2.1416393840        1.8686362112       -0.4396008630
 C          2.1116585787        3.1037550606        0.0442967094
 C         -0.2354559335        1.2438816354       -0.1743232125
 C         -1.2633070063        0.3243642227       -0.0185633420
 C         -2.6404268617        0.8987104729        0.1053170692
 O         -3.0328967371        1.8061617529       -0.5717920555
 O         -3.3984811022        0.3948631480        1.0968422619
 H         -3.8338607347       -2.8458223991       -0.6463302953
 H         -3.4112717925       -1.1586103211       -1.2138471117
 H         -1.7275192035       -3.0051998957        0.5603181925
 H          0.6298199165       -2.4715671607        0.1319145023
 H          3.3555056825        0.5920199440        0.8993763642
 H          2.9592847401        1.5582266915       -1.0794844595
 H          1.3229234201        3.4440867921        0.6945718007
 H          2.8847696592        3.8165122578       -0.1839988131
 H         -0.4972286827        2.2842676950       -0.2947150245
 H         -2.9862044512       -0.3647845965        1.5300636935
