31
 energy: -45.394891046232 gnorm: 0.000026931373 xtb: 6.4.1 (23d549d)
C        -0.68432869070000    3.83490136890000    0.20860237570000
C        -1.70617020950000    2.98812800390000    0.21907783850000
C        -1.62564303230000    1.53160167100000    0.18024271970000
C        -2.78419652400000    0.79683134550000   -0.05897040270000
C        -2.77415824800000   -0.59585403860000   -0.10643814510000
C        -4.02783722220000   -1.29999397230000   -0.35311798650000
C        -4.20657079280000   -2.61465689250000   -0.38872864760000
C        -1.56311436630000   -1.25802893180000    0.07952609350000
C        -0.39988410690000   -0.53786322810000    0.31613046260000
O         0.73750290340000   -1.26547876410000    0.56077473070000
C         1.96265328930000   -0.78368192430000    0.18258152280000
C         3.05609411410000   -1.16518769180000    0.95441057180000
C         4.32865792650000   -0.76678356910000    0.59287740430000
C         4.52323932510000    0.01381720420000   -0.53461832500000
C         3.43604637720000    0.38228236200000   -1.30839603970000
C         2.15795929580000   -0.01459512630000   -0.96008429580000
C        -0.42817603490000    0.84837107020000    0.38072500340000
H        -0.83971345110000    4.89989032430000    0.23247824310000
H         0.34166553740000    3.51068388820000    0.16881595020000
H        -2.71498873790000    3.38220015980000    0.23784017830000
H        -3.71677008290000    1.32215083670000   -0.21140613360000
H        -4.88020449260000   -0.65136434770000   -0.51583784810000
H        -3.40636547680000   -3.31691059300000   -0.23146216850000
H        -5.17655137480000   -3.04182521400000   -0.57750239010000
H        -1.50013463500000   -2.33326252100000    0.05089729010000
H         2.88710698450000   -1.77452111090000    1.82858252280000
H         5.17230207600000   -1.06454873460000    1.19761921750000
H         5.51767004640000    0.32867623860000   -0.81233704620000
H         3.58081575520000    0.97993591010000   -2.19636171080000
H         1.31305881260000    0.26138688760000   -1.57448968240000
H         0.47899222120000    1.38727607440000    0.60601797940000
