  47
        -56.03151609
 C          4.2743939340       -3.9162081220        0.1297526650
 C          4.2110271966       -2.7265155022       -0.4619126542
 C          3.4208087969       -1.6180647715       -0.0036790118
 C          3.3235494634       -0.3781897848       -0.5790492696
 C          2.4689139663        0.5123376432        0.0993604008
 C          2.2061876884        1.8936492257       -0.4144305698
 C          1.1974685272        1.8734046754       -1.5732858299
 C         -0.2052980531        1.4334958269       -1.1521597846
 C         -0.9777191234        2.5309325932       -0.4209906752
 C         -2.2578642893        2.0214996710        0.2413942078
 C         -3.3182918875        1.5725639332       -0.7615089261
 C         -4.6035802691        1.1350496172       -0.0626249007
 C         -5.7514284836        0.8383595763       -1.0292064391
 C         -5.4877435745       -0.2989107686       -2.0176462613
 C         -5.2481381742       -1.6427363061       -1.3398318335
 C          1.8966929908       -0.0601288816        1.2156693119
 C          0.9812085498        0.5302578759        2.1529428848
 C          0.4088703176       -0.1111715258        3.1684916371
 S          2.4305837937       -1.7074304752        1.4203942771
 H          4.8850723885       -4.7110319312       -0.2600355162
 H          3.7131050576       -4.1269160358        1.0251442951
 H          4.7813675064       -2.5307859098       -1.3616280956
 H          3.8607999563       -0.1087960303       -1.4724455668
 H          3.1465000496        2.3131138856       -0.7810894481
 H          1.8438880865        2.5402695261        0.3840415041
 H          1.5701567868        1.1887668148       -2.3387034759
 H          1.1452307667        2.8710138039       -2.0153986229
 H         -0.1281366978        0.5536953111       -0.5096965607
 H         -0.7597745743        1.1424373315       -2.0459665935
 H         -1.2258804859        3.3290396149       -1.1251933274
 H         -0.3427972306        2.9673962576        0.3525488032
 H         -2.6751510714        2.8212471322        0.8593100900
 H         -2.0099916287        1.1886608038        0.9045969751
 H         -2.9265140723        0.7447774151       -1.3522118688
 H         -3.5412696437        2.3978254453       -1.4426692997
 H         -4.9268891350        1.9332372409        0.6112363358
 H         -4.4001814546        0.2566174118        0.5519951468
 H         -5.9733754003        1.7456757426       -1.5972594741
 H         -6.6410995119        0.5918309290       -0.4438000195
 H         -4.6313003262       -0.0501724541       -2.6464475910
 H         -6.3576874103       -0.3848573979       -2.6738886484
 H         -4.3263392731       -1.6317072357       -0.7642473154
 H         -5.1714375017       -2.4322068533       -2.0843950100
 H         -6.0708616992       -1.8827548769       -0.6694794875
 H          0.7587753744        1.5756129771        1.9888441681
 H          0.6029565263       -1.1540147200        3.3578521379
 H         -0.2693479132        0.3861417390        3.8391302517
