  24
        -33.66775599
 C         -3.6140739424        0.3453094998       -0.2045861996
 C         -2.5090684356       -0.1449754867        0.3402608040
 C         -1.1660058967        0.3958516292        0.1345581378
 C         -0.9918510604        1.7755227249        0.0181193284
 C          0.2687271683        2.3184046667       -0.0981988680
 C          1.3900288597        1.5031019608       -0.0892184976
 C          1.2417548357        0.1292791801        0.0276649573
 O          2.2831573546       -0.7544692215        0.0340750947
 C          3.5930732192       -0.2549348625       -0.0588660627
 C         -0.0429237674       -0.4419615947        0.1278378016
 C         -0.1326995337       -1.8978686383        0.2101416068
 C         -1.0590563036       -2.6468785249       -0.3727725148
 H         -4.5824884206       -0.0771045487        0.0031545629
 H         -3.5936626925        1.1712549793       -0.8961494589
 H         -2.5686140000       -1.0035117681        0.9973322533
 H         -1.8568195313        2.4199992482        0.0464120920
 H          0.3931111229        3.3876336071       -0.1869505521
 H          2.3672674028        1.9513919115       -0.1727639929
 H          4.2430238793       -1.1282856504       -0.0245752560
 H          3.8347104639        0.4073511170        0.7792070880
 H          3.7558614725        0.2773575032       -1.0018361581
 H          0.6726980378       -2.3679077228        0.7596508983
 H         -1.8385059389       -2.2222384055       -0.9831139329
 H         -1.0555394827       -3.7198406027       -0.2776562983
  24
        -33.66540198
 C         -3.3005571541       -0.5827266207        0.3493118067
 C         -2.6782631488        0.4488482552       -0.2049559185
 C         -1.2466823310        0.7373242249       -0.1222984328
 C         -0.8700497907        2.0770185539       -0.0161248724
 C          0.4552053625        2.4235972390        0.1217092411
 C          1.4342689477        1.4433090677        0.1344856328
 C          1.0864939198        0.1051776614        0.0068645248
 O          2.0018572732       -0.9055744531       -0.0300187895
 C          3.3691726474       -0.5836485431       -0.0494633905
 C         -0.2676054472       -0.2661573257       -0.1230369088
 C         -0.6382311704       -1.6637960345       -0.3536160139
 C         -0.1081325440       -2.7212500547        0.2433809423
 H         -4.3676071224       -0.7056358180        0.2658700360
 H         -2.7748426237       -1.3269706001        0.9224851257
 H         -3.2597195607        1.2019896738       -0.7243838529
 H         -1.6328204468        2.8418026848       -0.0245204992
 H          0.7408735789        3.4608733790        0.2156415093
 H          2.4667406522        1.7368307750        0.2379411622
 H          3.8909470110       -1.5341930777       -0.1533530497
 H          3.6863353274       -0.1008595373        0.8813336680
 H          3.6223894373        0.0609814288       -0.8976928152
 H         -1.4284944420       -1.8022079460       -1.0828493202
 H          0.6516502401       -2.6316488816        0.9990401416
 H         -0.4301961368       -3.7203626536        0.0007840238
  24
        -33.66456724
 C         -3.1295117332       -0.5885786793        0.8548576036
 C         -2.6048797549        0.2037372827       -0.0666161903
 C         -1.1901644240        0.5874928457       -0.1386210613
 C         -0.9036426881        1.9425801072       -0.3079076085
 C          0.3971749445        2.3962038816       -0.2799605557
 C          1.4445867857        1.5094702538       -0.0877169799
 C          1.1821115401        0.1546774524        0.0552222269
 O          2.1460405240       -0.7995451005        0.2177786317
 C          3.4912852659       -0.3974832374        0.2707448896
 C         -0.1420696613       -0.3234402459        0.0157471510
 C         -0.3326604340       -1.7758531525        0.0914495774
 C         -1.1007871160       -2.4780594340       -0.7264293983
 H         -4.1858675896       -0.7942129724        0.8909125901
 H         -2.5211238902       -1.0642312837        1.6054299118
 H         -3.2495732105        0.6944025824       -0.7863031430
 H         -1.7177183066        2.6405172307       -0.4379876888
 H          0.6085677387        3.4480500675       -0.4037709359
 H          2.4550503311        1.8852910810       -0.0622715482
 H          4.0652420865       -1.3120965941        0.4134840604
 H          3.6789167384        0.2804412281        1.1102064499
 H          3.8061156359        0.0825850406       -0.6617391439
 H          0.2783478214       -2.2776739119        0.8307348046
 H         -1.6850593395       -2.0082841198       -1.5000703968
 H         -1.1766120022       -3.5494497520       -0.6514196441
  24
        -33.66172958
 C         -3.5200308707        0.2262703066        0.4806343628
 C         -2.4535991221       -0.1856266113       -0.1911040587
 C         -1.1289402097        0.4293661120       -0.1131995233
 C         -1.0182599921        1.8126740752        0.0190365878
 C          0.2132519543        2.4357462254        0.0137095892
 C          1.3664433114        1.6829438554       -0.1258955234
 C          1.2793918778        0.3065394546       -0.2592677416
 O          2.4481036911       -0.4194788503       -0.4262939545
 C          2.9111533121       -1.0484842573        0.7480152882
 C          0.0366037980       -0.3432954478       -0.2462408462
 C          0.0166750057       -1.8000528158       -0.3774543087
 C         -0.7858053157       -2.6226479323        0.2843252176
 H         -4.4787704199       -0.2500157306        0.3658329514
 H         -3.4737956586        1.0389674344        1.1865440810
 H         -2.5336785907       -1.0335727354       -0.8596512623
 H         -1.9183653277        2.4034445578        0.0977373657
 H          0.2787766342        3.5091767481        0.1114141697
 H          2.3400120480        2.1488014045       -0.1431934858
 H          3.8076465407       -1.5977451220        0.4655546384
 H          2.1674483796       -1.7434646794        1.1535966612
 H          3.1632930263       -0.3098144510        1.5180286294
 H          0.7687498495       -2.1991233473       -1.0479079053
 H         -1.5070839587       -2.2648375322        1.0002930959
 H         -0.7343643869       -3.6899239210        0.1473665204
  24
        -33.66025798
 C         -3.5410152482        0.4371080340        0.7652749526
 C         -2.5028332276       -0.1301260897        0.1667225137
 C         -1.1853201250        0.4917992430        0.0165460374
 C         -1.0783581114        1.8630156011       -0.1800564392
 C          0.1584645656        2.4456162045       -0.3882733761
 C          1.2959309238        1.6686327616       -0.3552916273
 C          1.2172567934        0.2917356947       -0.1355353681
 O          2.4342209575       -0.3328924352       -0.0865504895
 C          2.6270900582       -1.4718778522        0.7182442133
 C         -0.0331556958       -0.3167080914        0.0135835123
 C         -0.2120937043       -1.7750636046        0.1306719048
 C          0.1782911658       -2.6317705695       -0.8001698893
 H         -4.4918854340       -0.0622964651        0.8413646971
 H         -3.4788065023        1.4135597545        1.2160647773
 H         -2.6008915706       -1.1259881819       -0.2463406503
 H         -1.9728337141        2.4657439734       -0.2071655273
 H          0.2362533189        3.5080575608       -0.5639604392
 H          2.2751298649        2.0997882183       -0.4926228944
 H          3.6596850948       -1.4190519553        1.0689121142
 H          2.4880660551       -2.3958803893        0.1491389635
 H          1.9535370115       -1.4796803893        1.5782655477
 H         -0.7414232082       -2.1241079015        1.0100445719
 H          0.6770491162       -2.2999700227       -1.6966241018
 H          0.0084918795       -3.6916462970       -0.7077866400
  24
        -33.65989310
 C         -3.5379811494        0.1487981964        0.1795222054
 C         -2.3941445598       -0.2147168035       -0.3833821348
 C         -1.1075885860        0.4472023924       -0.1553252357
 C         -1.0745009534        1.8250126040        0.0251927832
 C          0.1304934065        2.4783089710        0.1999034255
 C          1.3032509574        1.7572097273        0.1900289736
 C          1.3007141709        0.3718169335        0.0046554482
 O          2.5595079185       -0.1566574542        0.0723561274
 C          2.8334895269       -1.5118531399       -0.1770969504
 C          0.0861026328       -0.3015705199       -0.1721011239
 C         -0.0282785588       -1.7646161935       -0.3371939576
 C         -0.6920357904       -2.5394935216        0.5064954357
 H         -4.4612993078       -0.3602890410       -0.0384063354
 H         -3.5951856011        0.9543793063        0.8924727473
 H         -2.3788745533       -1.0575294929       -1.0622056994
 H         -1.9973651707        2.3832933402        0.0052593201
 H          0.1564771589        3.5486195081        0.3387209602
 H          2.2593282900        2.2368447838        0.3285697487
 H          3.8871871278       -1.6388080690        0.0735934303
 H          2.6908425234       -1.7644245790       -1.2319848420
 H          2.2316674601       -2.1761233411        0.4476280803
 H          0.4220131450       -2.1939864046       -1.2235489067
 H         -1.1553542658       -2.1395740561        1.3932468819
 H         -0.7877420795       -3.6009301507        0.3497682739
  24
        -33.65961701
 C         -3.6183382612        0.3355903626        0.0758094229
 C         -2.4530035239       -0.1062194771        0.5286774816
 C         -1.1562455767        0.5036019968        0.2332848968
 C         -1.0641217093        1.8744551111        0.0176818411
 C          0.1478936189        2.4533235830       -0.3075287851
 C          1.2823478310        1.6740112078       -0.3787701781
 C          1.2229772397        0.2999929500       -0.1393467725
 O          2.4381052571       -0.3249800047       -0.2108208623
 C          2.6977916474       -1.4928806537        0.5305713164
 C         -0.0070249876       -0.3042818331        0.1426438963
 C         -0.1711303957       -1.7659481228        0.2538995869
 C          0.0434288838       -2.5960143871       -0.7534489260
 H         -4.5440299942       -0.1503670630        0.3331346121
 H         -3.6941909025        1.1843084740       -0.5827376973
 H         -2.4339226517       -0.9899146562        1.1526317526
 H         -1.9479860752        2.4857127334        0.1123660281
 H          0.2120565932        3.5158229600       -0.4884362173
 H          2.2446561943        2.1018156503       -0.6120487178
 H          3.7648205757       -1.4679704328        0.7597800699
 H          2.4753971308       -2.3953423230       -0.0462662614
 H          2.1295225022       -1.5161535530        1.4632581584
 H         -0.5269261949       -2.1462992141        1.2050682301
 H          0.3747225252       -2.2390745987       -1.7151159057
 H         -0.1071892233       -3.6585730019       -0.6598325550
  24
        -33.65946369
 C         -3.1833398722       -0.7119801378        0.0582533071
 C         -2.5345178794        0.3280980157        0.5625068870
 C         -1.1605975264        0.7326774428        0.2559103826
 C         -0.9197459845        2.0962084215        0.1114375954
 C          0.3296885805        2.5584499761       -0.2531758643
 C          1.3708192955        1.6650322711       -0.3975163770
 C          1.1700644305        0.3003120976       -0.1995798382
 O          2.3040193891       -0.4639551398       -0.3048000347
 C          2.5271545112       -1.5139488765        0.6098159962
 C         -0.1139109377       -0.1905828921        0.0801748309
 C         -0.3913948036       -1.6280852554        0.1823462294
 C         -0.0163898416       -2.5170473992       -0.7264041650
 H         -4.2081752318       -0.9139595420        0.3221102045
 H         -2.7305787751       -1.3829445887       -0.6509195030
 H         -3.0588792264        1.0055004569        1.2271745266
 H         -1.7342407108        2.7913279124        0.2547415072
 H          0.4994294567        3.6147668039       -0.3978377434
 H          2.3663257262        1.9985321647       -0.6455499453
 H          3.5865632585       -1.4734544602        0.8728894828
 H          2.3064707485       -2.4861758272        0.1596788712
 H          1.9261145771       -1.3987716349        1.5142462407
 H         -0.9779833774       -1.9372903259        1.0397847778
 H          0.5269084104       -2.2256630608       -1.6106436919
 H         -0.2528662656       -3.5636017735       -0.6289147216
