26
 energy: -36.722985384442 gnorm: 0.000041040664 xtb: 6.4.1 (23d549d)
C         3.87121404150000    0.40615408300000   -0.51788324120000
C         2.81667956200000    0.90567859130000    0.11346690740000
C         1.45186744430000    0.38976749490000    0.09478410980000
C         0.40360856430000    1.31201081210000    0.18148333000000
C        -0.92466704320000    0.92553200590000    0.14269074910000
C        -2.01463045360000    1.88517183720000    0.25558913560000
C        -1.96437586690000    3.14503952370000   -0.15893957220000
C        -1.15635472420000   -0.46574512030000    0.01724525910000
N        -2.40780057020000   -0.98116483340000   -0.14955821770000
N        -2.63375305010000   -2.36870094200000   -0.05001432340000
N        -0.16748660320000   -1.35355813080000    0.01164326610000
C         1.09949853510000   -0.96519681380000    0.04847499090000
C         2.09058995980000   -2.08631125740000    0.09268355420000
H         4.83481866390000    0.88342252970000   -0.45384376030000
H         3.81728069160000   -0.46848779370000   -1.14077959070000
H         2.93292934660000    1.82534602770000    0.67670291520000
H         0.64106129510000    2.36065111630000    0.29372913160000
H        -2.92346590170000    1.52219754470000    0.72220268380000
H        -1.09833044850000    3.54981451360000   -0.65441043390000
H        -2.79716154900000    3.81485565780000   -0.03114246800000
H        -3.20383572220000   -0.42418367540000    0.12521930930000
H        -1.90759527010000   -2.76816347670000    0.54686466530000
H        -2.50696767630000   -2.78424105110000   -0.97353783260000
H         1.61297336610000   -2.96438174700000    0.52079010810000
H         2.96221180440000   -1.81296223080000    0.68183948710000
H         2.41621409210000   -2.34269702850000   -0.91472484090000
