  18
        -23.32885228
 C         -2.7019659713        0.3698223046        0.0000161752
 C         -1.2100793282        0.4054094827        0.0000001068
 C         -0.4693414524        1.5418786250        0.0000134492
 S          1.2217117386        1.2237923656       -0.0000171659
 C          0.9356604279       -0.4887702905        0.0000071619
 C          2.0887118574       -1.4333139356        0.0000291354
 C         -0.3972015898       -0.7696992130        0.0000010832
 C         -0.9777755475       -2.1463696132       -0.0000288190
 H         -3.1073926722        1.3782653318       -0.0001275168
 H         -3.0690918969       -0.1558518877        0.8810658188
 H         -3.0691231564       -0.1561259010       -0.8808550670
 H         -0.8118096493        2.5576536339        0.0000134868
 H          3.0241216151       -0.8798561769       -0.0000433236
 H          2.0648760736       -2.0723854784       -0.8831223522
 H          2.0649411363       -2.0722582025        0.8832759543
 H         -0.1951877954       -2.8991916321        0.0000593065
 H         -1.6027419384       -2.2923182073       -0.8807955502
 H         -1.6029147497       -2.2922851769        0.8806189405
