  27
        -33.29709691
 C          2.9672583556       -1.5099840805        0.0000799214
 C          1.7048582981       -0.7204768287       -0.0000316434
 C          0.4069186939       -1.1830127962       -0.0001660754
 N         -0.4057716512       -0.1061933257       -0.0003053547
 C         -1.8582224818       -0.0224528240        0.0000216349
 C         -2.4786758463       -1.4168812629       -0.0026376766
 C         -2.2809271249        0.7448000907        1.2570102840
 C         -2.2811383324        0.7496314120       -1.2539102768
 N          0.2974587612        1.0262810200       -0.0001493874
 C          1.5738314871        0.6838654445       -0.0000295756
 C          2.6631522331        1.6959890043        0.0000342534
 H          2.7493018193       -2.5754582517        0.0001892827
 H          3.5652255381       -1.2750304381        0.8808497681
 H          3.5652686656       -1.2752236090       -0.8807123824
 H          0.0413851092       -2.1890059878       -0.0002066546
 H         -2.1846195313       -1.9758285061        0.8828890990
 H         -2.1834629284       -1.9728845896       -0.8896352510
 H         -3.5617956589       -1.3249858112       -0.0031671653
 H         -1.9934072670        0.1946934647        2.1505254995
 H         -3.3572987205        0.8926568190        1.2669123508
 H         -1.7860864291        1.7118618422        1.2715210038
 H         -1.9942149202        0.2027308600       -2.1495767680
 H         -1.7858721520        1.7165134940       -1.2650297816
 H         -3.3574507513        0.8979618765       -1.2627940291
 H          2.2337418789        2.6935807774        0.0000529380
 H          3.2922722094        1.5764997400       -0.8817244278
 H          3.2922400053        1.5764430949        0.8818067098
  27
        -33.29700791
 C          2.9384304963       -1.3962845522       -0.6237348922
 C          1.6920495885       -0.6538785378       -0.2892431147
 C          0.3853312621       -1.0407566881       -0.4839636584
 N         -0.4048446798       -0.0451404936       -0.0266488235
 C         -1.8582391427       -0.0104166261       -0.0233694935
 C         -2.3814232528       -1.1767504255        0.8223329482
 C         -2.3071175791        1.3173730934        0.5821895849
 C         -2.3622598638       -0.1262211781       -1.4661565050
 N          0.3203899403        0.9619282911        0.4525518010
 C          1.5892635475        0.6213701886        0.3064680164
 C          2.6987267520        1.5135982223        0.7357673195
 H          2.6995974579       -2.3560554649       -1.0759598079
 H          3.5322292217       -1.5702562382        0.2738027505
 H          3.5492651725       -0.8229267208       -1.3212816661
 H         -0.0107482297       -1.9409626531       -0.9091969911
 H         -1.9875169526       -1.1110802318        1.8339000003
 H         -2.0823073393       -2.1316228082        0.3970656307
 H         -3.4667513449       -1.1451993421        0.8684765424
 H         -1.9291776306        1.4132886252        1.5956075107
 H         -3.3923850560        1.3689579023        0.5972557365
 H         -1.9166572746        2.1458236636       -0.0011958034
 H         -2.0669000532       -1.0747547550       -1.9078191541
 H         -1.9518690026        0.6788432004       -2.0713016455
 H         -3.4467840767       -0.0596998875       -1.4873842053
 H          2.2884766895        2.4259096056        1.1586802016
 H          3.3337626946        1.7657297896       -0.1132081510
 H          3.3171060584        1.0179323227        1.4837805106
  27
        -33.29684565
 C          2.9542257167       -1.2617529876       -0.8397520918
 C          1.6994772035       -0.5905240299       -0.4017968461
 C          0.3987050749       -0.9226158051       -0.7084754037
 N         -0.4041166211       -0.0252033751       -0.0973225640
 C         -1.8575286947       -0.0004970895       -0.0409306554
 C         -2.3058553856       -0.8316416657        1.1675132002
 C         -2.3000732529        1.4534896148        0.1266032405
 C         -2.4414150752       -0.5779726835       -1.3311933278
 N          0.3085010420        0.8561485607        0.6026874897
 C          1.5806231739        0.5425981785        0.4303900461
 C          2.6778371784        1.3267365444        1.0567490284
 H          2.7272971487       -2.1154748067       -1.4740923070
 H          3.5232905462       -1.6081664473        0.0231611636
 H          3.5842294088       -0.5687932626       -1.3977761458
 H          0.0198768874       -1.7204748480       -1.3136330384
 H         -1.8883080104       -0.4105936781        2.0786693679
 H         -1.9603585970       -1.8590043599        1.0709461087
 H         -3.3898783834       -0.8332819235        1.2441788848
 H         -1.8165214285        1.8846773427        0.9975325697
 H         -3.3784601090        1.5043503779        0.2488223645
 H         -2.0144637218        2.0358783465       -0.7457731187
 H         -2.2660913192       -1.6484995827       -1.4021906200
 H         -2.0025788800       -0.0906407502       -2.1990287833
 H         -3.5153002100       -0.4110471015       -1.3477545554
 H          2.2569867291        2.1453905177        1.6331418460
 H          3.3402490811        1.7305096627        0.2914277919
 H          3.2705968952        0.6920711305        1.7150975413
