  45
        -51.80657817
 C         -6.7809484056        4.9392009439       -1.1242823272
 C         -6.5180428191        3.6187936441       -1.8390207307
 C         -5.4819265479        2.7457241185       -1.1303424295
 C         -4.0712346682        3.3295790813       -1.1655568078
 C         -3.0501901544        2.3867098279       -0.5327509976
 C         -1.6390971336        2.9693696702       -0.5754362623
 C         -0.6053690484        2.1179992584        0.1621682242
 C         -0.3519840639        0.7633744383       -0.4958088367
 C          0.7775642277        0.0039782134        0.1943515700
 C          1.0170454413       -1.3693822938       -0.4424520794
 C          2.1381692893       -2.0865227864        0.2425977002
 C          1.9612582815       -2.8341615622        1.4384583436
 C          3.1041741726       -3.3765850803        1.9257374493
 C          3.2971306628       -4.2118061811        3.1411391263
 S          4.4538350374       -2.9727884535        0.9091308929
 C          3.4361149723       -2.0646617821       -0.1684765448
 C          4.0235993174       -1.3959938746       -1.3634892275
 H         -7.5775889751        5.4865049906       -1.6233821453
 H         -5.8925841794        5.5651840493       -1.1202094605
 H         -7.0816798252        4.7602524305       -0.0940844764
 H         -6.1822884713        3.8191553135       -2.8591698501
 H         -7.4560176563        3.0618257242       -1.9041655509
 H         -5.4658551009        1.7637257202       -1.6103933986
 H         -5.7861813824        2.5986692074       -0.0912140672
 H         -4.0521428143        4.2815503787       -0.6323660057
 H         -3.7877432503        3.5232783908       -2.2030993335
 H         -3.0720614029        1.4327016417       -1.0624450011
 H         -3.3304436702        2.1974789340        0.5063919766
 H         -1.6578242558        3.9633230369       -0.1208592927
 H         -1.3299928532        3.0904310732       -1.6164990226
 H         -0.9352132256        1.9625295399        1.1921534368
 H          0.3375663083        2.6698183504        0.1993274191
 H         -0.0952819878        0.9153426318       -1.5471929129
 H         -1.2600442676        0.1591052009       -0.4585774353
 H          0.5353855943       -0.1294753358        1.2511585225
 H          1.6986557422        0.5891035626        0.1403139400
 H          1.2480991570       -1.2410641756       -1.5015660629
 H          0.1049715029       -1.9654262509       -0.3627013249
 H          1.0025647287       -2.9607107344        1.9111817526
 H          2.3428685769       -4.3652791683        3.6397667670
 H          3.9833074920       -3.7283316492        3.8365040235
 H          3.7175638532       -5.1827082313        2.8795154393
 H          5.0918668612       -1.5896039429       -1.4158882276
 H          3.8681042869       -0.3178996964       -1.3186516891
 H          3.5590926155       -1.7660506694       -2.2782647951
