  25
        -39.38332006
 C          3.9192772986        0.1162375267        0.7176915704
 O          2.5134870732       -0.0744699113        0.7866479137
 C          1.8243901265        0.2498714967       -0.3173909717
 O          2.3388120340        0.6693361457       -1.3195954942
 C          0.3566302757        0.0218094301       -0.1321196948
 N         -0.4001992039        1.0883629529       -0.3607906194
 C         -1.7167598699        0.9931945830       -0.2405813337
 N         -2.4196602724        2.1569932888       -0.4113488585
 C         -2.3563823624       -0.2148345733        0.1078328682
 C         -3.8465315260       -0.2884215516        0.2366175928
 C         -1.5473086868       -1.3124538270        0.3176814893
 C         -0.1591946073       -1.2256218208        0.2074864696
 C          0.7123031649       -2.4234132766        0.4264214940
 H          4.3120948126       -0.1509632636        1.6953385567
 H          4.1490040727        1.1571088268        0.4818405002
 H          4.3506740591       -0.5212781115       -0.0571471538
 H         -1.8782846483        2.9053362849       -0.8140056417
 H         -3.3735505753        2.0864440938       -0.7224065143
 H         -4.2019337571        0.4456875739        0.9589409685
 H         -4.1506506527       -1.2785189764        0.5665777683
 H         -4.3282248664       -0.0840071500       -0.7208971276
 H         -1.9977312974       -2.2617768239        0.5760055037
 H          0.1085774264       -3.3261034808        0.4878364287
 H          1.2748429670       -2.3170087633        1.3528498231
 H          1.4261388731       -2.5342038618       -0.3881916683
