  20
        -26.43757480
 C         -3.6902761207        0.5052922195        0.0673685586
 C         -2.4520893225        0.9747221271       -0.0236618201
 C         -1.2195101364        0.1945662053       -0.0202286017
 C         -1.2018669069       -1.2008017961       -0.0125699984
 C         -0.0000172016       -1.8834069375       -0.0093358802
 C          1.2018260758       -1.2007829120       -0.0111477233
 C          1.2194836374        0.1945879404       -0.0190459919
 C          2.4520005698        0.9748303443       -0.0215718571
 C          3.6904598656        0.5052115482        0.0652509490
 C         -0.0000177453        0.8678846651       -0.0278553275
 H         -4.5408010841        1.1653337032        0.0579593550
 H         -3.9121628116       -0.5442165658        0.1568749563
 H         -2.3042758627        2.0453054861       -0.1032271422
 H         -2.1273934832       -1.7548813160       -0.0152764674
 H         -0.0000041837       -2.9641733887       -0.0068002575
 H          2.1273301730       -1.7548947518       -0.0123649924
 H          2.3038903414        2.0457400160       -0.0965317186
 H          3.9127057001       -0.5446145765        0.1503492283
 H          4.5408309400        1.1654599160        0.0575402752
 H         -0.0000329179        1.9500554871       -0.0360149674
  20
        -26.43752595
 C         -3.0350131422        1.6565924473       -0.0946226822
 C         -2.6712479953        0.3885911507        0.0515010498
 C         -1.3098537917       -0.1359455632        0.0338287796
 C         -1.1198019526       -1.5182489340       -0.0066076824
 C          0.1548626351       -2.0529599381       -0.0293756074
 C          1.2619690869       -1.2268346218       -0.0090955454
 C          1.1062513343        0.1598423989        0.0368636226
 C          2.2360373967        1.0828022284        0.0650683129
 C          3.5175660670        0.7742964616       -0.0905196476
 C         -0.1842516047        0.6829882252        0.0619738605
 H         -4.0712422481        1.9478912198       -0.0727824355
 H         -2.3269503063        2.4529006682       -0.2480974703
 H         -3.4393337695       -0.3641558053        0.1845800014
 H         -1.9792057678       -2.1736124971       -0.0230191076
 H          0.2861897443       -3.1251721948       -0.0601996251
 H          2.2495479262       -1.6607189074       -0.0181737104
 H          1.9637805370        2.1202981521        0.2197215667
 H          3.8595360641       -0.2321151932       -0.2610187289
 H          4.2831513693        1.5305972020       -0.0576224345
 H         -0.3073051795        1.7548973357        0.1100193417
  20
        -26.43747651
 C         -2.7182678035        1.8317064847        0.1569966165
 C         -2.4995313422        0.5476692756       -0.0971595154
 C         -1.2133443827       -0.1412127810       -0.0605309354
 C         -1.1959580905       -1.5369597738       -0.1035277262
 C         -0.0000041237       -2.2273394884       -0.0528557309
 C          1.1959535668       -1.5401489818        0.0305249450
 C          1.2133429742       -0.1439348242        0.0538133636
 C          2.4995281441        0.5424378697        0.1230984822
 C          2.7182792174        1.8370483693       -0.0700919498
 C          0.0000017693        0.5368388148        0.0127741618
 H         -3.7087858826        2.2510576769        0.1108561933
 H         -1.9315915521        2.5146269724        0.4288019549
 H         -3.3418341730       -0.0882123702       -0.3429695513
 H         -2.1290322600       -2.0789397605       -0.1664772844
 H         -0.0000069474       -3.3076026722       -0.0785045238
 H          2.1290260343       -2.0845083349        0.0676843709
 H          3.3418070200       -0.1043493464        0.3386770030
 H          1.9316224044        2.5320358233       -0.3094293392
 H          3.7087877754        2.2537587253       -0.0040921263
 H          0.0000084226        1.6144383438        0.0383742323
