  40
        -80.92709148
 F          1.9352928329        3.7822740255       -0.4021841419
 C          2.9857060513        2.9582877081       -0.5766583345
 F          3.1672461260        2.8715426084       -1.9086167457
 F          4.0554287818        3.5974238450       -0.0893112792
 C          2.7554698475        1.6133724643        0.0495167686
 C          1.6524171959        0.8847602606       -0.3746578770
 C          1.3804715109       -0.3550978189        0.1916493449
 N          0.2602751413       -1.1077511998       -0.1925036078
 C          0.5566658244       -2.4414824507       -0.5471724748
 C          1.3474826796       -3.2190979483        0.2947168440
 S          2.0082232396       -2.4979924066        1.7775596746
 C          1.6494967055       -4.5326095345       -0.0267346992
 C          1.1714040214       -5.0763079217       -1.2047874303
 C          0.4290894881       -4.2947031287       -2.0758770845
 C          0.1345170253       -2.9814023617       -1.7581394728
 C         -1.0382610797       -0.6174660314       -0.1363681554
 C         -1.3066197183        0.6853040255        0.2964668281
 C         -2.5967885836        1.1627008118        0.3666980955
 C         -3.6850467923        0.3587422928        0.0220048118
 C         -5.0654223152        0.8027844528        0.0558199219
 C         -5.5403661144        1.9981893275        0.3759829904
 F         -4.8601986558        3.0783190383        0.7450101666
 F         -6.8417388569        2.2899429928        0.3687674197
 C         -3.4169110766       -0.9590978781       -0.3547788046
 C         -2.1300776824       -1.4422021228       -0.4267725606
 C          2.2816703063       -0.8795978644        1.1238144806
 C          3.3845745832       -0.1472211383        1.5362238460
 C          3.6169786942        1.1118672380        1.0159867777
 H          1.0031011205        1.2820603711       -1.1399349555
 H          2.2518844109       -5.1162156098        0.6516804267
 H          1.3945618203       -6.1026303583       -1.4507296923
 H          0.0819869001       -4.7063241273       -3.0110235308
 H         -0.4273997219       -2.3640602189       -2.4424613164
 H         -0.5025979003        1.3330443517        0.6071575548
 H         -2.7506946713        2.1749987595        0.7016555818
 H         -5.8131581970        0.0717205189       -0.2164614226
 H         -4.2371593064       -1.6211928556       -0.5904970942
 H         -1.9757640989       -2.4769011523       -0.6880492173
 H          4.0504409371       -0.5680388333        2.2727109627
 H          4.4647179680        1.6915382314        1.3438075982
