  30
        -41.32381295
 C         -1.7366907708       -1.0246957542        3.1796888762
 C         -1.1014691928       -0.9419030398        2.0183137951
 C         -1.6139955025       -0.2670409974        0.8269460719
 C         -2.9836906714       -0.1968317778        0.5774093565
 C         -3.4727597342        0.4049834613       -0.5654935193
 C         -2.5953493321        0.9463029688       -1.4910780602
 C         -1.2336088777        0.8795027490       -1.2640594649
 C         -0.7286401337        0.2795172363       -0.1150588216
 C          0.7286081254        0.2798304645        0.1149481066
 C          1.2334705444        0.8808955402        1.2634288729
 C          2.5952115964        0.9483283597        1.4902717210
 C          3.4727257536        0.4065748094        0.5650399562
 C          2.9837610313       -0.1963247281       -0.5773379156
 C          1.6140693042       -0.2671950906       -0.8266857394
 C          1.1016633573       -0.9431928419       -2.0174658223
 C          1.7366955658       -1.0264363454       -3.1789097736
 H         -1.3086839429       -1.5437510993        4.0202238138
 H         -2.6971671457       -0.5653723013        3.3448220967
 H         -0.1193075922       -1.3861462074        1.9142163081
 H         -3.6698078491       -0.6419368209        1.2824463332
 H         -4.5381058908        0.4465612493       -0.7393929477
 H         -2.9711097340        1.4164843776       -2.3878208955
 H         -0.5433221983        1.3063843018       -1.9778617278
 H          0.5431053931        1.3081242669        1.9769477037
 H          2.9708955368        1.4193529830        2.3866041403
 H          4.5380735844        0.4486667547        0.7388060650
 H          3.6699587647       -0.6417580554       -1.2820906588
 H          0.1197728216       -1.3879137524       -1.9128461614
 H          2.6968740677       -0.5666709552       -3.3445476325
 H          1.3088115195       -1.5463095222       -4.0190016337
