23
 energy: -44.947952027766 gnorm: 0.000045950525 xtb: 6.4.1 (23d549d)
C         3.12290560580000    2.45586676640000    0.03988698460000
C         2.65332989820000    1.21301295660000    0.11081292860000
C         1.25894489880000    0.87136834560000    0.04258017040000
S         0.02918511350000    2.08080615410000   -0.14762622220000
C        -1.23417813160000    0.89138540480000   -0.16790853010000
C        -2.61866782090000    1.25868589840000   -0.28616895290000
C        -3.05355644970000    2.51185814780000   -0.38945067480000
C        -0.71615406580000   -0.38161183360000   -0.02359496590000
C        -1.58548799270000   -1.58177617550000    0.09520317000000
O        -2.55582252620000   -1.76959940440000   -0.58700018120000
O        -1.22905589310000   -2.47068278100000    1.03908662960000
C         0.70536695200000   -0.39434824270000    0.07804761360000
C         1.54065852840000   -1.62301999290000    0.13139303510000
O         2.50753144520000   -1.73924124940000    0.83417871810000
O         1.15682805680000   -2.62658433000000   -0.67706943540000
H         4.17612033000000    2.66114807830000    0.10462632550000
H         2.46782872080000    3.30371069080000   -0.08226550620000
H         3.32124088530000    0.37399944950000    0.24711551010000
H        -3.30979874330000    0.42768629000000   -0.30606631460000
H        -2.37508542010000    3.35003104470000   -0.38467126410000
H        -4.10079451760000    2.73515129490000   -0.48447617330000
H        -0.44807239770000   -2.21971257430000    1.55106054180000
H         0.38148284160000   -2.42939066360000   -1.22019924510000
