19
 energy: -35.164346215651 gnorm: 0.000053735833 xtb: 6.4.1 (23d549d)
C         0.99312615820000    2.71447254330000   -0.80332011630000
C         0.44222393870000    1.76045638250000   -0.06384956970000
C         0.98214264250000    0.40705621970000    0.01210967770000
N         2.25040362030000    0.25376303760000   -0.36010184390000
C         2.83631066480000   -0.91617181950000   -0.23044826340000
C         2.20798046600000   -2.02351498790000    0.32474628030000
C         0.88229615510000   -1.89334543430000    0.69299262070000
C         0.22814547950000   -0.67602234160000    0.50920666040000
C        -1.19354260290000   -0.59473931740000    0.83876080080000
C        -2.12553666090000   -0.02323644960000    0.09454521240000
F        -1.95787265090000    0.57422113350000   -1.07755977890000
F        -3.41644826560000    0.00297527140000    0.41973170110000
H         0.59373904360000    3.71322927560000   -0.83273150300000
H         1.86088370670000    2.50595905730000   -1.40447789620000
H        -0.43461914100000    1.96117054150000    0.53639852020000
H         3.86260514320000   -0.96449042220000   -0.57063207170000
H         2.73481597450000   -2.95545446910000    0.45463848500000
H         0.33974163190000   -2.73356558620000    1.10318926840000
H        -1.52862125410000   -1.09620345480000    1.73502370950000
