  31
        -38.14027401
 C         -2.8190766225       -2.3692910087        0.2797528822
 C         -1.9822457952       -1.1590422160        0.0609982711
 C         -0.6800847781       -1.0872271385       -0.3095659361
 C         -0.1731088455        0.2373977511       -0.4239761776
 C          1.2280346797        0.6176307952       -0.8350139324
 C          1.9855293588        1.3262280650        0.3003350601
 C          2.4159308458        0.3498301708        1.3877997306
 C          3.3508433147       -0.6989447197        0.7984391118
 C          2.6184997276       -1.4770276193       -0.2876609307
 C          2.0769350733       -0.5434245092       -1.3704639466
 C         -1.1352009989        1.1686046276       -0.1547438387
 C         -1.0672040404        2.6563371151       -0.2013883412
 S         -2.6479538250        0.4274081827        0.2769048080
 H         -2.2381218018       -3.2648391424        0.0710860360
 H         -3.6927172448       -2.3569882693       -0.3717093801
 H         -3.1729166954       -2.4129329504        1.3099275554
 H         -0.1074769102       -1.9714600118       -0.5181614651
 H          1.1211775900        1.3410364258       -1.6564034667
 H          1.3614583107        2.1077069546        0.7323415309
 H          2.8754599762        1.8027412404       -0.1195153409
 H          1.5343354040       -0.1390285304        1.8085634856
 H          2.9171997291        0.8932052582        2.1919238505
 H          3.6940262475       -1.3832253364        1.5774189788
 H          4.2289430484       -0.2055014365        0.3743389851
 H          1.8076670273       -2.0342576641        0.1814152246
 H          3.2931424685       -2.2016849604       -0.7507315540
 H          1.4977707895       -1.1142609782       -2.0995878500
 H          2.9301102513       -0.1095853454       -1.8996987364
 H         -0.3139311323        2.9837658665       -0.9155665336
 H         -0.8183706930        3.0717429301        0.7767782279
 H         -2.0321831686        3.0640155161       -0.4973617097
  31
        -38.13513846
 C         -3.3977186246       -1.7716237425        1.0178452850
 C         -2.2901114352       -0.8938621839        0.5547809256
 C         -1.1036004263       -0.6382683852        1.1499663465
 C         -0.2413877480        0.2559144258        0.4377636519
 C          1.0844420565        0.5820728435        1.0932013991
 C          1.8756900691       -0.7023465255        1.4028895193
 C          2.4625400705       -1.3159150959        0.1374407053
 C          3.4259524604       -0.3333100308       -0.5168312420
 C          2.6811994760        0.9502991974       -0.8635656117
 C          2.0291659321        1.5526558746        0.3785588223
 C         -0.8308216143        0.7042280017       -0.7067301251
 C         -0.4437984233        1.6610786221       -1.7865315138
 S         -2.4120101105       -0.0136498614       -0.9310598219
 H         -3.1390029518       -2.2217982336        1.9735373363
 H         -3.5878068309       -2.5652752832        0.2953322555
 H         -4.3184182958       -1.2002993288        1.1350181509
 H         -0.8435616694       -1.0624041960        2.1042463717
 H          0.8196314387        1.0418945685        2.0571028876
 H          1.2435992459       -1.4343232623        1.9047800259
 H          2.6912852675       -0.4480411483        2.0851130609
 H          1.6543848840       -1.5555538576       -0.5574543745
 H          2.9814411874       -2.2446995998        0.3849312612
 H          3.8567544057       -0.7694052050       -1.4207167878
 H          4.2451131950       -0.1136915131        0.1725859678
 H          1.9229708321        0.7150011019       -1.6073971455
 H          3.3689835038        1.6785846386       -1.3001396517
 H          1.5083366251        2.4788683359        0.1335833382
 H          2.8209888775        1.8136468635        1.0872837081
 H          0.2472790009        2.4203320361       -1.4381918533
 H         -1.3391614435        2.1581803017       -2.1578253229
 H          0.0081248446        1.1363261647       -2.6303056757
  31
        -38.13512864
 C         -3.2695009389       -2.1506381669       -0.4898295846
 C         -2.2158648914       -1.1124067474       -0.3362227607
 C         -0.9813541379       -1.0680875682       -0.8853631212
 C         -0.1930598197        0.0727886863       -0.5289582748
 C          1.1866886713        0.1715586789       -1.1469546952
 C          2.0735834445        1.3528250902       -0.7432794919
 C          2.5686512848        1.2538466562        0.6973328414
 C          3.3277202868       -0.0491477339        0.9194244233
 C          2.4336467229       -1.2275831583        0.5529774465
 C          1.9959865941       -1.1155089050       -0.9025807636
 C         -0.8889621311        0.9195310486        0.2823037168
 C         -0.6117021837        2.2473553932        0.9083720176
 S         -2.4795676739        0.2862458309        0.6491331032
 H         -2.9240724503       -2.9326065399       -1.1622476199
 H         -4.1830934993       -1.7155553488       -0.8945072579
 H         -3.5121198375       -2.5980566810        0.4740750449
 H         -0.6348122612       -1.8302881639       -1.5610582089
 H          1.0132028803        0.2496112825       -2.2306978640
 H          1.5553797171        2.2966836570       -0.9132582153
 H          2.9437671536        1.3474893194       -1.4066639556
 H          1.7247479075        1.2808476430        1.3837592632
 H          3.2135425879        2.1074443736        0.9195166986
 H          3.6432012177       -0.1232664605        1.9623801264
 H          4.2252508650       -0.0665913700        0.2959231974
 H          1.5509473905       -1.2327517036        1.1965765084
 H          2.9683299488       -2.1677250492        0.7060406050
 H          1.4203196526       -1.9974551767       -1.1808590559
 H          2.8839006990       -1.0889889611       -1.5399028499
 H          0.1171266259        2.8245161024        0.3510838430
 H         -0.2545497167        2.1297640721        1.9330561878
 H         -1.5380907649        2.8187640207        0.9529550284
  31
        -38.13511475
 C         -3.3412691536       -2.0936875901       -0.5734548672
 C         -2.2592066106       -1.0930307925       -0.3747642993
 C         -1.0191938068       -1.0645500597       -0.9121996641
 C         -0.2050264352        0.0441453444       -0.5144556409
 C          1.1789346291        0.1106764762       -1.1248883094
 C          2.0599882291        1.3241508288       -0.8130879559
 C          2.6314584800        1.3158382064        0.6028024726
 C          3.3965430853        0.0262938426        0.8740322528
 C          2.4746384201       -1.1642703789        0.6417363806
 C          1.9815237177       -1.1630051060       -0.7999738195
 C         -0.8824185999        0.8812566215        0.3207763347
 C         -0.5672831211        2.1768148211        0.9936374956
 S         -2.4925858894        0.2798173470        0.6543445779
 H         -3.0121670852       -2.8620307896       -1.2693604623
 H         -4.2371452544       -1.6176560131       -0.9716918493
 H         -3.6073860801       -2.5663253024        0.3719892653
 H         -0.6821500227       -1.8128377373       -1.6087272685
 H          1.0055469965        0.1151036653       -2.2113938683
 H          1.5112101721        2.2474300614       -1.0034364405
 H          2.8974047649        1.3026783042       -1.5171625777
 H          1.8289734981        1.3951250128        1.3327218346
 H          3.2899317669        2.1786720763        0.7297682878
 H          3.7689073894        0.0238642462        1.9007320073
 H          4.2577410615       -0.0444451464        0.2048562148
 H          1.6189810163       -1.1035523858        1.3181635589
 H          3.0033226311       -2.0973845975        0.8488870366
 H          1.3779390956       -2.0523582450       -0.9805344208
 H          2.8448215656       -1.2070128775       -1.4693503724
 H         -0.1717790415        2.0098682883        1.9973044681
 H         -1.4847824850        2.7540909339        1.1001858180
 H          0.1453299092        2.7704071110        0.4315993273
