24
 energy: -40.177728837275 gnorm: 0.000037346745 xtb: 6.4.1 (23d549d)
C        -5.23688078510000   -1.23285445430000    0.04278444610000
C        -3.91481411700000   -1.32504417650000   -0.03004621070000
C        -2.95957927340000   -0.22194748250000   -0.01686004990000
C        -3.35025096330000    1.11892048680000   -0.00562354570000
C        -2.40081279560000    2.12304613560000    0.00556288960000
C        -1.05411135740000    1.81468064270000    0.00647023490000
C        -0.62752767680000    0.48272233650000   -0.00386820060000
C         0.79828705730000    0.21542013270000   -0.00177976430000
C         1.38287458250000   -0.99313972260000    0.03188795110000
C         2.80155548250000   -1.25368567980000    0.03553574440000
C         3.79793917870000   -0.37556034690000    0.00087707490000
F         3.71450031380000    0.94940168120000   -0.04539977200000
F         5.08285349950000   -0.72829338260000    0.00831343410000
C        -1.59914832310000   -0.51785026800000   -0.01809212880000
H        -5.85973158380000   -2.11076249350000    0.02730853690000
H        -5.75443286800000   -0.29245607460000    0.12313442470000
H        -3.46368650320000   -2.30765953660000   -0.10179969750000
H        -4.39724248520000    1.37762049380000   -0.01068995290000
H        -2.71412697350000    3.15696471120000    0.01238907670000
H        -0.31940291190000    2.60673197480000    0.01525505310000
H         1.41690951520000    1.10143108740000   -0.02593591580000
H         0.77669496430000   -1.88657725930000    0.06209842450000
H         3.11076480130000   -2.28805375550000    0.07032464070000
H        -1.29959717010000   -1.55525177780000   -0.03131223470000
