26
 energy: -46.998191842087 gnorm: 0.000064058361 xtb: 6.4.1 (23d549d)
C        -2.17327771550000   -3.13287262680000   -0.21469837520000
C        -2.21308513800000   -1.82675893880000   -0.44938811030000
C        -1.10077510100000   -0.91054066470000   -0.22046660950000
C         0.21847955120000   -1.35982356720000   -0.22089786980000
C         1.29212942450000   -0.50788890540000   -0.01138415110000
C         2.65423698030000   -1.12001753100000   -0.10752964640000
O         2.89536018160000   -2.22530338600000    0.28903664110000
O         3.60251744210000   -0.37858447400000   -0.70756793540000
C         1.07343124190000    0.85414026510000    0.25259187160000
C         2.16909761180000    1.77696391300000    0.56198230110000
C         2.19744241170000    3.05364496070000    0.20124105810000
C        -0.24421014730000    1.30264822500000    0.27528612610000
C        -1.31765453910000    0.45612608470000    0.02904735160000
C        -2.69066730140000    1.05506333200000    0.03461384240000
O        -3.50870443070000    0.88010216110000   -0.82257782690000
O        -2.95265896290000    1.85923668620000    1.08219792650000
H        -3.02989952320000   -3.75682876720000   -0.40134264210000
H        -1.30374433420000   -3.62692449280000    0.18597123020000
H        -3.12099635830000   -1.37247853590000   -0.81791300770000
H         0.43390012020000   -2.39788439880000   -0.42014797570000
H         3.27725249280000    0.48717358150000   -0.99268812280000
H         2.98860788470000    1.36064871220000    1.13526203000000
H         1.41533600270000    3.50022625190000   -0.39051150470000
H         3.01741089580000    3.69607253330000    0.47072386740000
H        -0.42485846390000    2.34945437740000    0.48080000020000
H        -2.22561487090000    1.89230320110000    1.71846992670000
