  48
        -55.80628908
 C          3.7709634304       -2.8481562875        0.2451445756
 C          3.7559788789       -1.5206973354        0.1843938515
 C          2.5716973028       -0.6968753734        0.1002192579
 C          1.2640700377       -1.1104656376        0.1295576939
 N          0.4232451136       -0.0405279175        0.0197611620
 Si        -1.3495410848       -0.0071962759        0.0564934285
 C         -1.8136349128        0.5614851652        1.8397157179
 C         -1.1261037036        1.8670137030        2.2382404210
 C         -3.3222107183        0.6962012341        2.0438786351
 C         -1.8867985974        1.2661980280       -1.2888619343
 C         -1.0340138524        1.2065242899       -2.5579247140
 C         -3.3612438061        1.1193511705       -1.6676563122
 C         -2.1023451005       -1.7456407739       -0.2799616586
 C         -1.5817250540       -2.3917784664       -1.5639825568
 C         -1.9495497414       -2.7101163444        0.8970921312
 C          1.2062130791        1.0772863228       -0.0733518109
 C          2.5336788576        0.7353382683       -0.0298145198
 C          3.6718530274        1.6230065491       -0.1016853900
 C          3.6123787602        2.9486868200       -0.1724589274
 H          4.6938756896       -3.3988181090        0.3069380098
 H          2.8675863879       -3.4335105598        0.2342278023
 H          4.6973744531       -0.9870240129        0.1954449858
 H          0.8745623886       -2.1013293139        0.2308071802
 H         -1.4547312640       -0.2090852650        2.5313357870
 H         -1.4392529647        2.6827920332        1.5903032318
 H         -0.0453310615        1.7708105300        2.1767731377
 H         -1.3862595750        2.1333457399        3.2616537476
 H         -3.7124375566        1.5228930805        1.4553728260
 H         -3.5481302034        0.8961010041        3.0903410028
 H         -3.8439375852       -0.2111682154        1.7506141271
 H         -1.7626084806        2.2681836189       -0.8633745937
 H         -1.1646986659        0.2555186343       -3.0673391520
 H          0.0222385659        1.3251879307       -2.3335263281
 H         -1.3287703462        1.9987470015       -3.2449188430
 H         -3.5384630258        0.1635929706       -2.1543893195
 H         -3.6534077543        1.9075263869       -2.3601770037
 H         -4.0034868810        1.1801731193       -0.7938050482
 H         -3.1785318297       -1.5914744683       -0.4161091963
 H         -0.5034336215       -2.5204811291       -1.5338233361
 H         -1.8236139578       -1.7820739285       -2.4301104960
 H         -2.0376092287       -3.3712639521       -1.7051550700
 H         -0.9044794523       -2.9088655390        1.1171279897
 H         -2.4304520581       -3.6604000228        0.6675047023
 H         -2.4119253425       -2.3067649118        1.7937692429
 H          0.7573683630        2.0450246204       -0.1649290852
 H          4.6416035772        1.1428021373       -0.0943122052
 H          2.6766725906        3.4808429220       -0.1805286445
 H          4.5034030230        3.5505536198       -0.2238551145
