  21
        -34.60486905
 C         -3.4519037228        0.5224514773        0.0000035669
 C         -1.9701281068        0.3978281952       -0.0000015708
 N         -1.1515247061        1.5025385092       -0.0000003730
 C          0.1387076720        1.1021436888       -0.0000000696
 N          1.2225837817        1.9156092195       -0.0000008764
 C          2.3483324014        1.2915491317       -0.0000014416
 N          2.4846613273       -0.0585504282        0.0000005351
 C          1.4191631179       -0.9819353482        0.0000025569
 O          1.6586873026       -2.1721437829        0.0000021512
 C          0.1573349219       -0.2998883428       -0.0000002361
 C         -1.1941347004       -0.7369009818       -0.0000016913
 C         -1.6611987539       -2.1506607999       -0.0000035138
 H         -3.7502182329        1.5679873457       -0.0000844908
 H         -3.8751513932        0.0379294271        0.8794461466
 H         -3.8751671716        0.0377744965       -0.8793449692
 H         -1.4572484835        2.4616627934        0.0000027416
 H          3.2564156364        1.8773879803       -0.0000027093
 H          3.4088868557       -0.4718301503        0.0000000809
 H         -0.8013593738       -2.8138299580       -0.0000034207
 H         -2.2686015915       -2.3553406918       -0.8812738530
 H         -2.2686034202       -2.3553427609        0.8812648445
