  47
        -92.14602159
 C         -1.2095287499       -1.4945677944       -3.1956873600
 O         -0.2645968845       -1.8964057770       -2.2148033910
 C         -0.6618870626       -2.8682830165       -1.3810778718
 C          0.4091884691       -3.2375277495       -0.4146537317
 C          1.1639705656       -2.2848801275        0.2824340669
 N          0.8700930201       -0.9166012943        0.1988424874
 C          1.9085095308        0.0043753366        0.1154320553
 C          1.8000172440        1.2561454943        0.7210048765
 C          2.8445267536        2.1613794597        0.6226300611
 C          2.6803102943        3.4905273950        1.3022172627
 F          1.5351916824        4.1034984368        0.9498346200
 F          2.6351894324        3.3696862661        2.6442020231
 F          3.6694029724        4.3530580357        1.0359104551
 C          4.0120388901        1.8455420312       -0.0572583623
 C          4.1186080594        0.5975207675       -0.6507983444
 C          3.0840598486       -0.3121371717       -0.5719630802
 C         -0.4653857064       -0.4970586040        0.2177971262
 C         -1.4130007140       -1.1969642327        0.9651810355
 C         -2.7338087030       -0.8068375776        0.9531982207
 C         -3.1592465355        0.2922609785        0.2023009153
 C         -4.5695925195        0.6360050026        0.2246992962
 C         -5.2003574961        1.5730479741       -0.4687351344
 F         -4.6870253119        2.4205080884       -1.3540097281
 F         -6.5094091165        1.7965269684       -0.3681058891
 C         -2.2013924525        0.9980062308       -0.5309746158
 C         -0.8791921923        0.6097360678       -0.5243221869
 C          2.1915231430       -2.7218688550        1.1182731358
 C          2.4569570998       -4.0691965449        1.2648927496
 C          1.6845370100       -5.0113460258        0.6028043505
 C          0.6616677608       -4.5919560566       -0.2264924287
 O         -1.7320566585       -3.4145768440       -1.4548728441
 H         -0.6992056700       -0.7779392834       -3.8334756468
 H         -2.0750517466       -1.0324715758       -2.7164880138
 H         -1.5438759311       -2.3577376762       -3.7745237197
 H          0.9083447894        1.5206190021        1.2690529129
 H          4.8158787666        2.5607702327       -0.1219503402
 H          5.0173328326        0.3383839819       -1.1885875131
 H          3.1699891845       -1.2759538664       -1.0503247159
 H         -1.1088433307       -2.0488115211        1.5548419577
 H         -3.4528180245       -1.3634331344        1.5349254883
 H         -5.1972025326        0.0510627298        0.8813560004
 H         -2.4867953970        1.8527472291       -1.1216311311
 H         -0.1580402405        1.1540707346       -1.1150046230
 H          2.7717514736       -1.9905355687        1.6614187709
 H          3.2573803939       -4.3858770828        1.9163313262
 H          1.8787275954       -6.0642414377        0.7337103826
 H          0.0488654183       -5.3062417197       -0.7550198023
