  26
        -48.71623560
 C          1.4989778839       -3.6156680927        0.6240336167
 C          0.7060391945       -2.9069014947       -0.1663409821
 C          0.5627952423       -1.4477926145       -0.1282189803
 C         -0.7110251469       -0.9319785451       -0.1255904469
 C         -0.9689937117        0.4489096937       -0.0009161157
 C         -2.3027417782        1.0234753364        0.0273724569
 C         -3.4664452264        0.4032814030       -0.0980640721
 F         -3.6901426091       -0.8933167532       -0.2797504724
 F         -4.6345485825        1.0387445889       -0.0577276734
 C          0.1229609754        1.2865316482        0.1124630802
 F         -0.0774883677        2.6159230677        0.2609045465
 C          1.4522222914        0.8265874364        0.0637907763
 C          2.5458466817        1.7158577278        0.1377241619
 C          3.8256572089        1.2476532035        0.0450615456
 C          4.0593364018       -0.1211561371       -0.1482102386
 C          3.0165112884       -1.0053314985       -0.2098103390
 C          1.6830006689       -0.5690110619       -0.0773309309
 H          1.5286698204       -4.6908183850        0.5732165681
 H          2.1264098375       -3.1536512837        1.3681112841
 H          0.0451823209       -3.4138306466       -0.8585451604
 H         -1.5428647578       -1.6142187074       -0.1892769368
 H         -2.3608467542        2.0939238294        0.1633457999
 H          2.3481177333        2.7703016601        0.2580672427
 H          4.6607513890        1.9295191317        0.1013708586
 H          5.0738689183       -0.4753066505       -0.2560722214
 H          3.2075245596       -2.0525585787       -0.3837536131
