  56
        -64.41525568
 C          2.1954274996       -2.9676024056        1.8914412038
 C          1.3084702297       -2.5829823224        0.9890360584
 C          0.5980135840       -1.2931947929        1.0012317644
 C         -0.7887716313       -1.3199608971        1.1083022200
 C         -1.5577000284       -0.1691621993        1.1536438157
 C         -3.0534087497       -0.2812376051        1.2329697340
 C         -3.7039344007        0.0353408376       -0.1184709163
 C         -5.2247011121       -0.0730719066       -0.0490733499
 C         -5.9231923275        0.3648802473       -1.3372706021
 C         -5.5919670485       -0.4781399138       -2.5698740099
 C         -6.0086284199       -1.9376812602       -2.4309399663
 C         -0.9121075104        1.0711331978        1.0557299963
 C         -1.6599825285        2.3270917712        1.0920125271
 C         -1.3292186390        3.4256506052        0.4267696744
 C          0.4743722471        1.0925951258        0.9288703941
 C          1.2449781180       -0.0582331988        0.9050884610
 C          2.7262608200        0.0542619566        0.6772347995
 C          3.0377141591       -0.1120610687       -0.8150187908
 C          4.5349239344       -0.0989459176       -1.1203336781
 C          5.1916356150        1.2533945664       -0.8472738487
 C          6.6206514279        1.3447985237       -1.3836316546
 C          7.5894206274        0.4118538599       -0.6663629279
 H          2.6642378226       -3.9366688764        1.8516832184
 H          2.4771152745       -2.3347191434        2.7172833579
 H          1.0142402754       -3.2628245104        0.1971768389
 H         -1.2800748480       -2.2818083512        1.1743766252
 H         -3.4476315763        0.4004112620        1.9906817400
 H         -3.3255493141       -1.2965642968        1.5301844225
 H         -3.3112518522       -0.6597419914       -0.8625360642
 H         -3.4231731091        1.0455383420       -0.4251631277
 H         -5.5846108865        0.5631807435        0.7642939876
 H         -5.5069411360       -1.0988182854        0.1944915316
 H         -5.6532058484        1.4035503742       -1.5450078172
 H         -7.0035078712        0.3320450101       -1.1729449188
 H         -4.5223816220       -0.4223239152       -2.7784297496
 H         -6.1128144823       -0.0430391601       -3.4266441230
 H         -5.4262968760       -2.4394792268       -1.6626734205
 H         -5.8531615089       -2.4651253713       -3.3695815522
 H         -7.0620351694       -2.0096196247       -2.1679631167
 H         -2.5483506160        2.3338410485        1.7104597244
 H         -0.4766217476        3.4626664735       -0.2306968213
 H         -1.9123647058        4.3281718897        0.4987588375
 H          0.9717128090        2.0500615936        0.8665924342
 H          3.2641588486       -0.7121399666        1.2336775189
 H          3.0687756256        1.0324130731        1.0167168073
 H          2.5406427080        0.6826472798       -1.3767910602
 H          2.6182618671       -1.0644996080       -1.1489036768
 H          4.6755288479       -0.3492505695       -2.1751767922
 H          5.0219868262       -0.8743373656       -0.5264913401
 H          5.2062215314        1.4476496218        0.2266887105
 H          4.5916029873        2.0354312299       -1.3199399150
 H          6.9709716603        2.3735161362       -1.2675411525
 H          6.6208052764        1.1155703200       -2.4519431229
 H          7.5732547489        0.5981231084        0.4054881427
 H          8.6035998517        0.5709644768       -1.0261748574
 H          7.3285178752       -0.6288225559       -0.8394624689
