  20
        -34.89693102
 C          3.7745057234        1.9846614458       -0.0442424220
 C          2.4708186843        1.7460640251        0.0283126909
 C          1.8210003937        0.4396476489        0.0182159524
 C          2.5312004362       -0.7621115405        0.0157289688
 C          1.8612533006       -1.9706785712        0.0052607374
 C          0.4798430983       -2.0070214953       -0.0029959228
 C         -0.2577051141       -0.8208615461        0.0011432444
 C         -1.7095980171       -0.9198084930       -0.0063624292
 C         -2.6057111337        0.0553661433       -0.0060461553
 F         -2.3934641525        1.3662477208        0.0015174296
 F         -3.9199994892       -0.1655549912       -0.0138200697
 C          0.4281558078        0.3912437758        0.0133214734
 H          4.1591384377        2.9899470254       -0.0315556860
 H          4.5099854978        1.2023868989       -0.1219258565
 H          1.7882699730        2.5843003443        0.0967257350
 H          3.6095414559       -0.7533631307        0.0260781698
 H          2.4207337718       -2.8946607183        0.0041357494
 H         -0.0351572689       -2.9563200236       -0.0112342782
 H         -2.1225330588       -1.9185260679       -0.0136136049
 H         -0.1184319265        1.3208373374        0.0171116918
