  15
        -20.98607890
 C         -1.5223158627        1.5940117660        0.0000173109
 C         -0.3221123227        0.7147645355       -0.0000133487
 C          0.9890997256        1.0801295620       -0.0000213374
 O          1.7925860479       -0.0000048367       -0.0000016653
 C          0.9890995398       -1.0801212313        0.0000250537
 C         -0.3221158555       -0.7147578091        0.0000111903
 C         -1.5223097023       -1.5940165072       -0.0000176073
 H         -1.2266838764        2.6396766588       -0.0006684325
 H         -2.1337710666        1.4011815285        0.8808947031
 H         -2.1345277668        1.4002093630       -0.8801132818
 H          1.4600505232        2.0432309763       -0.0000515049
 H          1.4600096337       -2.0432455771        0.0000541449
 H         -1.2266613917       -2.6396769120        0.0005094652
 H         -2.1338534201       -1.4010846645       -0.8808112567
 H         -2.1344408800       -1.4003375272        0.8801975651
