  23
        -42.29598518
 C         -1.2314542529        3.7368381472        0.0086995084
 C         -1.9857419983        2.6446039233       -0.0018198751
 C         -1.5208674103        1.2614868607       -0.0011030063
 C         -2.4692775944        0.2363851014       -0.0035446600
 C         -2.1026625932       -1.0991204599       -0.0022295329
 C         -3.1086281526       -2.2072714293       -0.0032694444
 C         -0.7455671210       -1.3908797266        0.0013299178
 F         -0.3726563855       -2.6919090470        0.0026063035
 C          0.2448209466       -0.4051417465        0.0027694259
 C          1.6372877999       -0.8252286588        0.0056564833
 C          2.7212141393       -0.0648078207       -0.0006177140
 F          2.7904595866        1.2617049558       -0.0109211185
 F          3.9561860797       -0.5589412613        0.0026579375
 C         -0.1706117034        0.9241902988        0.0016946831
 H         -1.6737547605        4.7181062545        0.0074343786
 H         -0.1557408395        3.7068594427        0.0191872612
 H         -3.0633981688        2.7527437162       -0.0112084088
 H         -3.5200432645        0.4882789978       -0.0062789180
 H         -4.1196530922       -1.8112225037       -0.0291006003
 H         -2.9911253900       -2.8222867459        0.8881432796
 H         -2.9570208122       -2.8525987467       -0.8674844247
 H          1.8183814823       -1.8904625572        0.0129831953
 H          0.5678054861        1.7060217596        0.0027931027
  23
        -42.29588446
 C         -2.7543866443        3.4186027487        0.0379597435
 C         -1.5677228172        2.8269856253       -0.0228033160
 C         -1.3049867429        1.3918239189       -0.0144971858
 C         -2.3232382377        0.4368523020       -0.0076194255
 C         -2.0456345690       -0.9193694138        0.0007950779
 C         -3.1248809013       -1.9565711015        0.0098188733
 C         -0.7118235493       -1.3067655378        0.0025241216
 F         -0.4327015924       -2.6309611295        0.0106503423
 C          0.3454933310       -0.3945260942       -0.0057996745
 C          1.7051539393       -0.9101144685       -0.0052426745
 C          2.8388384622       -0.2259683199       -0.0016921959
 F          2.9989781057        1.0923353700        0.0018442707
 F          4.0367474262       -0.8042637866       -0.0010867363
 C          0.0188000806        0.9599969431       -0.0155680656
 H         -2.8428664727        4.4911461116        0.0271901122
 H         -3.6798139698        2.8727371292        0.1027354143
 H         -0.6786248907        3.4422649094       -0.0801018833
 H         -3.3548031281        0.7512075856       -0.0122425547
 H         -4.1063563904       -1.4937840721       -0.0368202490
 H         -3.0596546425       -2.5582408346        0.9156612899
 H         -3.0078868360       -2.6297110346       -0.8382911930
 H          1.8118671291       -1.9853596933       -0.0066710669
 H          0.8051617564        1.6967655097       -0.0228353758
  23
        -42.29238727
 C         -3.3049950269        3.3787091805        0.0499650999
 C         -2.0740231108        3.0100489319       -0.2825400190
 C         -1.5151017347        1.6650568937       -0.2015391491
 C         -2.2864883909        0.5414935093        0.1020584265
 C         -1.7335819003       -0.7255003457        0.1591718915
 C         -2.5519105307       -1.9429986575        0.4550867203
 C         -0.3683007131       -0.8544613260       -0.0767594076
 F          0.1616426127       -2.0953233868       -0.0723255855
 C          0.4465027945        0.2371131334       -0.3639168768
 C          1.8826026263        0.1116039193       -0.6056183066
 C          2.7113690200       -0.6919005981        0.0409886288
 F          2.4288219808       -1.4963168407        1.0509728906
 F          4.0152624155       -0.7551725575       -0.2194305219
 C         -0.1555583889        1.4895888848       -0.4421233099
 H         -3.6243002143        4.4024363961       -0.0414821157
 H         -4.0397222385        2.6898256090        0.4294421891
 H         -1.3820815836        3.7608176147       -0.6436623012
 H         -3.3444337987        0.6503200935        0.2809465203
 H         -3.5884021420       -1.6773481221        0.6418360278
 H         -2.1532733643       -2.4601534763        1.3267241169
 H         -2.5085880746       -2.6371213243       -0.3834061641
 H          2.3163294656        0.7527449119       -1.3578984362
 H          0.4596288074        2.3456828014       -0.6775132502
  23
        -42.29236080
 C         -1.9802203270        3.9785115282        0.2147338050
 C         -2.4840548879        2.7549015046        0.1108912617
 C         -1.7385415007        1.5010346363        0.1057042066
 C         -2.4268778932        0.3113972118       -0.1436760666
 C         -1.7886239687       -0.9166211484       -0.1512990814
 C         -2.5194100377       -2.1996047379       -0.3935638399
 C         -0.4183257895       -0.9354585110        0.0851988574
 F          0.2011009028       -2.1332121661        0.1338030027
 C          0.3153463201        0.2248380650        0.3207908186
 C          1.7567912405        0.2107290998        0.5650237452
 C          2.6410704166       -0.5594358470       -0.0476612226
 F          2.4178822464       -1.4238685017       -1.0222876711
 F          3.9457023515       -0.5197715699        0.2139171900
 C         -0.3695683020        1.4357115509        0.3448509344
 H         -2.6170563025        4.8460897163        0.2054084596
 H         -0.9254122165        4.1715957985        0.3069115821
 H         -3.5557113350        2.6375017852        0.0080324701
 H         -3.4908323852        0.3466255588       -0.3288773633
 H         -3.5730261679       -2.0153554832       -0.5826700531
 H         -2.4226157127       -2.8556065246        0.4707496709
 H         -2.0892098850       -2.7207464532       -1.2476759743
 H          2.1433889186        0.9116951096        1.2891251779
 H          0.1891637437        2.3354713398        0.5463844924
