  46
        -76.74157700
 F          2.9543607114        5.8382025523       -0.1638639927
 C          3.3172948049        4.5549115303       -0.1160893248
 F          4.6435250697        4.4889254185       -0.0841189774
 C          2.4417135271        3.5604956108       -0.1031205380
 C          2.6843857778        2.1287011389       -0.0512919409
 C          3.9753559576        1.5748571573       -0.0232158595
 C          4.1695517090        0.2113810590        0.0061661515
 C          1.5680944332        1.2928193093       -0.0335785916
 C          1.7626608085       -0.0756270235        0.0215971112
 C          3.0646608060       -0.6306674080        0.0246409537
 C          2.9007188380       -2.0549275121        0.0360892551
 C          3.7929578921       -3.1198753618        0.0592801718
 C          3.2881394004       -4.4037046011        0.0891908907
 C          1.9135862207       -4.6333011747        0.1111230657
 C          1.0066285021       -3.5915157373        0.0881402466
 C          1.5072521199       -2.2984539845        0.0339851344
 N          0.8324208939       -1.0940432170        0.0260001240
 C         -0.5605358132       -0.9331091509        0.0224156874
 C         -1.3435755995       -1.6133017636       -0.9057737216
 C         -2.7150935610       -1.4589846549       -0.9003999088
 C         -3.3374859464       -0.6133569952        0.0159276472
 C         -4.7977268259       -0.4469371310        0.0138703944
 C         -5.6365931385       -1.5441086693       -0.1681889120
 C         -7.0100169358       -1.3876638301       -0.1662901980
 C         -7.5679627434       -0.1327283754        0.0114897902
 C         -6.7434315486        0.9654040787        0.1903169933
 C         -5.3698427847        0.8102864578        0.1945860660
 C         -2.5435016303        0.0697275291        0.9351748755
 C         -1.1727999200       -0.0917189460        0.9469405588
 H          1.4065713411        3.8702001029       -0.1347105226
 H          4.8341913212        2.2243932478       -0.0341838535
 H          5.1676257565       -0.1990611198        0.0113633822
 H          0.5734252114        1.7110292677       -0.0739599569
 H          4.8573483283       -2.9404245761        0.0582885992
 H          3.9634645870       -5.2460005218        0.1053055159
 H          1.5490762380       -5.6491562943        0.1506112916
 H         -0.0558477356       -3.7792608156        0.1231708987
 H         -0.8687294979       -2.2488050223       -1.6383914189
 H         -3.3116196192       -1.9786658124       -1.6355596155
 H         -5.2075602699       -2.5281855615       -0.2897864675
 H         -7.6484825745       -2.2485138165       -0.3018803117
 H         -8.6409619643       -0.0110604301        0.0107959462
 H         -7.1731296113        1.9473703742        0.3251265460
 H         -4.7316871538        1.6734246236        0.3171470331
 H         -3.0098219508        0.7114116561        1.6681307135
 H         -0.5697160946        0.4183449263        1.6834165305
