  31
        -38.13512864
 C         -3.2695009389       -2.1506381669       -0.4898295846
 C         -2.2158648914       -1.1124067474       -0.3362227607
 C         -0.9813541379       -1.0680875682       -0.8853631212
 C         -0.1930598197        0.0727886863       -0.5289582748
 C          1.1866886713        0.1715586789       -1.1469546952
 C          2.0735834445        1.3528250902       -0.7432794919
 C          2.5686512848        1.2538466562        0.6973328414
 C          3.3277202868       -0.0491477339        0.9194244233
 C          2.4336467229       -1.2275831583        0.5529774465
 C          1.9959865941       -1.1155089050       -0.9025807636
 C         -0.8889621311        0.9195310486        0.2823037168
 C         -0.6117021837        2.2473553932        0.9083720176
 S         -2.4795676739        0.2862458309        0.6491331032
 H         -2.9240724503       -2.9326065399       -1.1622476199
 H         -4.1830934993       -1.7155553488       -0.8945072579
 H         -3.5121198375       -2.5980566810        0.4740750449
 H         -0.6348122612       -1.8302881639       -1.5610582089
 H          1.0132028803        0.2496112825       -2.2306978640
 H          1.5553797171        2.2966836570       -0.9132582153
 H          2.9437671536        1.3474893194       -1.4066639556
 H          1.7247479075        1.2808476430        1.3837592632
 H          3.2135425879        2.1074443736        0.9195166986
 H          3.6432012177       -0.1232664605        1.9623801264
 H          4.2252508650       -0.0665913700        0.2959231974
 H          1.5509473905       -1.2327517036        1.1965765084
 H          2.9683299488       -2.1677250492        0.7060406050
 H          1.4203196526       -1.9974551767       -1.1808590559
 H          2.8839006990       -1.0889889611       -1.5399028499
 H          0.1171266259        2.8245161024        0.3510838430
 H         -0.2545497167        2.1297640721        1.9330561878
 H         -1.5380907649        2.8187640207        0.9529550284
