  20
        -27.54527854
 C          2.5808666780       -1.4140054488        0.5676671130
 C          2.1468493216       -0.3477360827       -0.0956790115
 C          0.7962850565        0.1644078144       -0.1058450949
 S          0.6141964799        1.8735166627       -0.3993048106
 C         -1.0798735340        1.7802450988       -0.1402997761
 C         -1.4963135482        0.5207143253        0.1494515199
 C         -2.9205173124        0.1502370263        0.4022260493
 C         -0.4213857741       -0.4216055624        0.1581023117
 C         -0.6850132340       -1.8439602307        0.3552808905
 C         -0.1855341811       -2.8186801064       -0.3895317963
 H          3.6175543052       -1.7010230615        0.5400733412
 H          1.9225119049       -2.0295975632        1.1551153595
 H          2.8540732938        0.2627835214       -0.6445768787
 H         -1.6739736583        2.6695037185       -0.2184513635
 H         -3.5650484391        1.0165766315        0.2767171301
 H         -3.0415075367       -0.2283440956        1.4171795001
 H         -3.2378322410       -0.6292564520       -0.2893334169
 H         -1.4023486468       -2.0719154819        1.1347516856
 H          0.5064723335       -2.6203058955       -1.1906394961
 H         -0.4462073089       -3.8497012084       -0.2209879913
