  45
        -71.33656790
 C         -4.5068358455        0.1452464401        1.4814284322
 C         -3.7385470036        0.0836660110        0.1486325073
 C         -2.9383793584       -1.2042099671        0.1120264175
 C         -1.5439002559       -1.2132647349        0.0047803833
 N         -0.8301420445       -0.0281703360       -0.1010295395
 C         -1.4588269129        1.2088300150       -0.0897524145
 C         -2.8478372007        1.3065646837        0.0414779671
 C         -3.4214225407        2.5707371596        0.0548670624
 C         -2.6659694823        3.7219124446       -0.0670167992
 C         -1.2959340179        3.6167138292       -0.2234467719
 C         -0.6999473278        2.3733963509       -0.2390359573
 C          0.5807480629       -0.0828868040       -0.2284341086
 C          1.1611643136       -0.4759340505       -1.4301146663
 C          2.5341907123       -0.5277848481       -1.5493061446
 C          3.3639389468       -0.1874077211       -0.4772945729
 C          4.8017730992       -0.2630631366       -0.6766019362
 C          5.7703978064        0.0124408465        0.1847292793
 F          5.6566708111        0.4249045301        1.4410797703
 F          7.0625696889       -0.0952288108       -0.1176588099
 C          2.7710607020        0.2062331599        0.7246842966
 C          1.3970028792        0.2559877099        0.8458235246
 C         -0.8614034377       -2.4330777029        0.0322397516
 C         -1.5441395261       -3.6272976951        0.1270503840
 C         -2.9248689949       -3.6269862633        0.2053791733
 C         -3.6003299574       -2.4209252658        0.2051530638
 C         -4.7227273770        0.0893852735       -1.0353791721
 H         -3.8050114996        0.1371853036        2.3133737332
 H         -5.1721348042       -0.7072233749        1.5863632019
 H         -5.1028270123        1.0514441100        1.5444889276
 H         -4.4914496710        2.6662733052        0.1612151983
 H         -3.1444407294        4.6891672581       -0.0493815884
 H         -0.6872892133        4.5013667854       -0.3370760615
 H          0.3682970869        2.3012388675       -0.3742868319
 H          0.5270073202       -0.7407473947       -2.2630672622
 H          2.9759870476       -0.8318571360       -2.4867837437
 H          5.1361033456       -0.5846369121       -1.6525674701
 H          3.3799919264        0.4717135027        1.5728460710
 H          0.9434476995        0.5613717368        1.7769699043
 H          0.2167568405       -2.4429067940       -0.0145741822
 H         -0.9940947132       -4.5563952527        0.1430682922
 H         -3.4715193052       -4.5548946168        0.2760600094
 H         -4.6770083025       -2.4341045366        0.2824651352
 H         -5.3885873578       -0.7679646369       -0.9908388856
 H         -4.1725578730        0.0485916941       -1.9737162461
 H         -5.3287120819        0.9911105189       -1.0327023669
