  40
        -55.55679705
 C         -4.3595492747        0.4932896525        2.6978265825
 C         -3.8746034524        0.1941861991        1.3101248366
 C         -4.4080047601        0.8415850895        0.2108488292
 C         -3.9594614780        0.5540936209       -1.0754300870
 C         -4.5546776082        1.2660919106       -2.2525992816
 C         -2.9645724708       -0.3890116524       -1.2423768327
 C         -2.4121043224       -1.0510861444       -0.1446095845
 O         -1.4515209288       -1.9731746803       -0.4507024672
 C         -0.7258277393       -2.5990273547        0.5825836153
 C          0.3204216221       -1.6773825714        1.2161551126
 C          1.3537717996       -1.2229929138        0.1883086735
 C          2.3589418459       -0.2424464552        0.7858917518
 C          3.3865153629        0.2138096437       -0.2473799645
 C          4.3901683008        1.2037481522        0.3572771805
 C          5.4134650595        1.6266239656       -0.6785589564
 O          5.4518563498        2.7071687922       -1.1878685198
 O          6.3008242253        0.6719661064       -1.0181123944
 C         -2.8720685443       -0.7545661673        1.1295176659
 H         -5.1023233566        1.2864934745        2.6873997141
 H         -3.5309298682        0.8008399602        3.3345799147
 H         -4.8081932158       -0.3949778755        3.1417348422
 H         -5.1846053016        1.5803269237        0.3477348987
 H         -4.4030534875        2.3409010581       -2.1609888862
 H         -5.6277056145        1.0850945044       -2.3008711851
 H         -4.1025923593        0.9286672376       -3.1812921829
 H         -2.5938230856       -0.6387805544       -2.2244690766
 H         -0.2263444589       -3.4403174144        0.0927149710
 H         -1.4014055959       -3.0002465558        1.3486288490
 H          0.8094070665       -2.2152989752        2.0309286762
 H         -0.1760738041       -0.8000626094        1.6350481367
 H          0.8338003329       -0.7492381051       -0.6462767366
 H          1.8816661291       -2.0963884321       -0.2022915931
 H          2.8725102009       -0.7176974764        1.6260027333
 H          1.8276287037        0.6291887034        1.1733217227
 H          2.8729383125        0.6954924146       -1.0814788380
 H          3.9086203950       -0.6621806383       -0.6434831042
 H          4.8993157067        0.7462948409        1.2105034038
 H          3.8647585401        2.0946450518        0.7014496458
 H          6.1574553444       -0.1511630505       -0.5329340191
 H         -2.4737614561       -1.2510752476        2.0011888450
