  34
        -46.60808751
 C          7.0841288943       -0.6185038018        0.0694837552
 C          6.1483963679        0.3219099475       -0.0031256027
 C          4.7074667855        0.1205456453       -0.0076527061
 C          3.8664192505        1.2352270525       -0.0748788269
 C          2.4959158032        1.1048628902       -0.0797829214
 C          1.8937448671       -0.1559152792       -0.0182724092
 C          0.4613773042       -0.3639617588       -0.0171756358
 C         -0.4842946986        0.5893935632       -0.0143715995
 C         -1.9167115542        0.3817959696       -0.0077226474
 C         -2.5194533517       -0.8794821562       -0.0714734757
 C         -3.8888192183       -1.0178708651       -0.0593002664
 C         -4.7293647112        0.0959623254        0.0174007679
 C         -6.1811360103        0.0020179175        0.0353319195
 C         -6.9090164270       -1.1084289049       -0.0129492570
 C         -4.1297036022        1.3566340758        0.0782249350
 C         -2.7601873630        1.4961298629        0.0645987586
 C          2.7380185049       -1.2712453858        0.0439013990
 C          4.1080950274       -1.1398324949        0.0506753219
 H          8.1308449238       -0.3668388193        0.0674970621
 H          6.8537876868       -1.6680836194        0.1347672313
 H          6.4558448552        1.3593513686       -0.0650784081
 H          4.3056577990        2.2222907351       -0.1240504045
 H          1.8853684680        1.9930120556       -0.1359753961
 H          0.1642230239       -1.4046067738       -0.0092558848
 H         -0.1869589652        1.6300284916       -0.0075563603
 H         -1.9063849585       -1.7654610892       -0.1353885358
 H         -4.3154584043       -2.0078682319       -0.1108315107
 H         -6.6905655256        0.9567047644        0.0956485196
 H         -6.4729907162       -2.0907284937       -0.0728499995
 H         -7.9847716562       -1.0728665583        0.0066929115
 H         -4.7553341337        2.2367405523        0.1366975610
 H         -2.3245212265        2.4846877790        0.1129783840
 H          2.2995923020       -2.2587955927        0.0904402640
 H          4.7218986383       -2.0260216360        0.1007370983
  34
        -46.60805132
 C          7.1016240320        0.5070654564       -0.2775847073
 C          6.1495081337       -0.3672542349        0.0291590558
 C          4.7142289833       -0.1279322638        0.0290706376
 C          4.1466473780        1.1290521895       -0.1920560660
 C          2.7807345983        1.2988731547       -0.1814110137
 C          1.9102623280        0.2253101717        0.0413666438
 C          0.4830104514        0.4677342060        0.0332763893
 C         -0.4826629218       -0.4644309027        0.0637769217
 C         -1.9098312619       -0.2217069418        0.0494286095
 C         -2.7802371561       -1.3078062870       -0.1012374695
 C         -4.1460442381       -1.1387994649       -0.1273901127
 C         -4.7138321833        0.1306295549        0.0044691420
 C         -6.1488136487        0.3704884096       -0.0138769406
 C         -7.1051156334       -0.5324668639       -0.2019027782
 C         -3.8464825815        1.2149721691        0.1663621442
 C         -2.4800774884        1.0476625758        0.1872115840
 C          2.4804477595       -1.0308120981        0.2705007436
 C          3.8470075657       -1.1983037290        0.2665427146
 H          8.1423264109        0.2328652985       -0.2514220233
 H          6.8904344134        1.5214926167       -0.5693650344
 H          6.4359632493       -1.3758251010        0.3035962543
 H          4.7826268549        1.9832660688       -0.3667013805
 H          2.3665070892        2.2828543616       -0.3538966153
 H          0.2085174760        1.5130104177       -0.0256379729
 H         -0.2082507586       -1.5112826322        0.0789860527
 H         -2.3660072849       -2.3014258913       -0.2046929423
 H         -4.7815055399       -2.0027606942       -0.2472223124
 H         -6.4320005930        1.4051066281        0.1409505775
 H         -6.8988219860       -1.5760219833       -0.3666693093
 H         -8.1450490420       -0.2541822432       -0.1995328444
 H         -4.2614476310        2.2074107866        0.2782564717
 H         -1.8472933039        1.9113583811        0.3233544211
 H          1.8474304071       -1.8829749378        0.4655246398
 H          4.2621119440       -2.1800031361        0.4498061391
  34
        -46.60804973
 C          6.9424385415        0.3816721609        0.8358128927
 C          6.1662408854       -0.0104230793       -0.1686915401
 C          4.7119758842       -0.0531556082       -0.1833985703
 C          4.0575114350       -0.4914452675       -1.3376105057
 C          2.6834366093       -0.5498602677       -1.3995348957
 C          1.8906136015       -0.1660080008       -0.3123573612
 C          0.4501739993       -0.2410251017       -0.4354797858
 C         -0.4501435272        0.2284892815        0.4428927509
 C         -1.8905831739        0.1607789657        0.3153768210
 C         -2.5463219485       -0.5611415248       -0.6879312708
 C         -3.9203551214       -0.5908726037       -0.7638892631
 C         -4.7121586954        0.0999390769        0.1574017809
 C         -6.1666174559        0.1013054149        0.1184365446
 C         -6.9417227704       -0.5494193815       -0.7423801393
 C         -4.0591702031        0.8189973622        1.1619734321
 C         -2.6849964703        0.8454811878        1.2416469790
 C          2.5478114959        0.2671504510        0.8444503652
 C          3.9218236322        0.3212870000        0.9067609059
 H          8.0153460513        0.3774493160        0.7476132969
 H          6.5504282437        0.7205174336        1.7793156885
 H          6.6328223134       -0.3384695073       -1.0902878372
 H          4.6436986282       -0.7906858849       -2.1956686580
 H          2.2043104992       -0.8929597789       -2.3062194690
 H          0.1052915350       -0.7096505314       -1.3480881659
 H         -0.1053585068        0.7317891583        1.3369035753
 H         -1.9709856827       -1.1149456287       -1.4141083080
 H         -4.3890843050       -1.1601957832       -1.5518789291
 H         -6.6343270248        0.7048941049        0.8875837802
 H         -6.5485053635       -1.1695210890       -1.5295060862
 H         -8.0149144525       -0.4844239223       -0.6878791304
 H         -4.6466175775        1.3615105368        1.8899908871
 H         -2.2071130348        1.4100455622        2.0304771922
 H          1.9736460751        0.5565522639        1.7114379753
 H          4.3918783832        0.6580698981        1.8180223421
