  19
        -30.52327135
 C         -1.2067303304        2.4936487125        0.0000344826
 C         -0.4230075468        1.2196141573        0.0000055948
 C          0.9612126774        1.2136291145        0.0000070901
 C          1.6353627471        0.0076447206       -0.0000055881
 F          2.9892545761        0.0100372677       -0.0000213280
 C          0.9691569848       -1.2004172012        0.0000083450
 C         -0.4183525600       -1.2160862969        0.0000134178
 C         -1.1681535465       -2.5196810138        0.0000348928
 C         -1.1073744792       -0.0010743158       -0.0000122987
 O         -2.4706046424        0.0516558175       -0.0000452627
 H         -0.5469552325        3.3561350015       -0.0000255340
 H         -1.8514555074        2.5334501437        0.8764895071
 H         -1.8515866390        2.5334198869       -0.8763247269
 H          1.5165215521        2.1380387651        0.0000149508
 H          1.5308485123       -2.1211226592        0.0000152431
 H         -0.4698535168       -3.3515295476        0.0003459467
 H         -1.7982110829       -2.6105926969       -0.8867341482
 H         -1.7986555377       -2.6103043276        0.8865152331
 H         -2.8265874960       -0.8442369981       -0.0002000407
