28
 energy: -47.555418523406 gnorm: 0.000089573776 xtb: 6.4.1 (23d549d)
C         2.40615644390000   -3.64122937460000   -0.06382030340000
C         1.19227224120000   -3.10188915080000   -0.06161561350000
C         0.83171991170000   -1.69137782540000   -0.01290712620000
C        -0.51193141690000   -1.34364988590000   -0.05470592310000
C        -0.97302538160000   -0.02975703320000    0.00115705090000
C        -2.44189484320000    0.10248811790000   -0.02122168640000
O        -3.19798058430000   -0.83605809600000   -0.10348302210000
O        -2.91221362120000    1.37143712090000    0.06884506130000
C        -4.32670807060000    1.49857338900000    0.04852316200000
C        -0.04678813970000    1.03403197320000    0.08032367980000
N        -0.42929116080000    2.33329247580000    0.13030164350000
C         1.33217036700000    0.71296660530000    0.09806764590000
C         2.38314317430000    1.73529679970000    0.16935197960000
C         2.41999460250000    2.86333654290000   -0.52784627860000
C         1.72475554190000   -0.61748885350000    0.07535557020000
F         3.05356594190000   -0.85115790420000    0.12368451460000
H         2.52827053650000   -4.71054360190000   -0.10483514180000
H         3.31265344580000   -3.06551272330000   -0.02793605410000
H         0.33043671730000   -3.75692781290000   -0.10335676410000
H        -1.25903868350000   -2.12045782420000   -0.12400285430000
H        -4.53733009040000    2.56393359020000    0.10107483070000
H        -4.76655692740000    0.97632999200000    0.90042432000000
H        -4.73119085740000    1.07120083920000   -0.87070671570000
H        -1.40157646400000    2.53212109140000    0.28924797850000
H         0.25894953270000    3.00925028650000    0.41842301860000
H         3.21156350440000    1.48627960040000    0.82133282800000
H         1.66357051480000    3.12291641660000   -1.24990529220000
H         3.24446527100000    3.54942925910000   -0.43243749430000
