26
 energy: -40.959703689348 gnorm: 0.000069482279 xtb: 6.4.1 (23d549d)
C        -4.30695480310000    0.76789900810000   -0.63345673860000
C        -3.33356159430000    1.40538666710000    0.00350077580000
C        -1.94170028780000    0.96587700240000    0.08745040890000
C        -0.94889383860000    1.94720932620000    0.03426552280000
C         0.39068719580000    1.61296519500000    0.03721627080000
C         0.74000770740000    0.27790113390000    0.11501664070000
S         2.47056226770000   -0.18334665250000    0.07910197530000
C         2.80626185160000   -0.35334809560000   -1.70158397340000
O         3.26197985940000    0.90700964440000    0.58111561570000
O         2.62776392950000   -1.47635011250000    0.68823449100000
C        -0.21453594020000   -0.70923762940000    0.20781460090000
C        -1.57198199720000   -0.38844548930000    0.19880852180000
C        -2.56548806500000   -1.44476703060000    0.38211891920000
C        -2.43957768010000   -2.68600346770000   -0.06733110060000
H        -5.30549893850000    1.16861134500000   -0.67710391530000
H        -4.13896961570000   -0.15961693430000   -1.15425295180000
H        -3.53572240200000    2.36532243730000    0.46292920590000
H        -1.24330282820000    2.98491313730000   -0.02667315790000
H         1.16748329950000    2.36007716190000    0.00343137710000
H         2.61411249600000    0.60179715990000   -2.17228477890000
H         2.15672501360000   -1.12556166790000   -2.09218252420000
H         3.84560622630000   -0.63392524910000   -1.81747014380000
H         0.11138529400000   -1.73041507260000    0.32816459990000
H        -3.45015412180000   -1.15812116250000    0.93619972790000
H        -1.59253569470000   -3.00052250070000   -0.65369367680000
H        -3.19237959290000   -3.43204836670000    0.12021412050000
