  31
        -50.04214663
 C         -5.9199594785        2.3927756625       -0.0504700813
 C         -6.0088870491        1.0650787177       -0.0297139494
 C         -4.8915722981        0.1645548547       -0.0114769363
 C         -4.9344312149       -1.2091682999        0.0101618431
 C         -3.6733295790       -1.8122255852        0.0242368817
 C         -2.6378825568       -0.9039053531        0.0135681074
 C         -1.2386152396       -1.1691680711        0.0224742009
 C         -0.6066490384       -2.3936656369        0.0488400759
 C          0.7860990443       -2.3012534443        0.0498317744
 C          1.2504554995       -1.0038821499        0.0241197772
 C          2.6022939551       -0.5559163213        0.0166627026
 C          3.7500213684       -1.3190136612        0.0345085888
 C          4.9224583836       -0.5592146584        0.0190074889
 C          4.7004233833        0.7974359951       -0.0109003622
 C          5.6346652504        1.8890173216       -0.0343893646
 C          6.9606535683        1.7676073560       -0.0325332867
 S          2.9945411158        1.1358723085       -0.0197471498
 S         -0.0745200784        0.1223515118       -0.0014204561
 S         -3.2454792582        0.7251428003       -0.0145773273
 H         -6.7944981844        3.0184033412       -0.0632846159
 H         -4.9641767746        2.8905107091       -0.0548947743
 H         -6.9774632755        0.5806706557       -0.0253389102
 H         -5.8576033084       -1.7618987756        0.0154069982
 H         -3.5217881365       -2.8761618026        0.0413541104
 H         -1.1384760550       -3.3274788669        0.0670547002
 H          1.4366948613       -3.1565618868        0.0686741835
 H          3.7384304121       -2.3936345385        0.0579885455
 H          5.9055524130       -0.9937719292        0.0294080332
 H          5.1854481858        2.8735490855       -0.0550660196
 H          7.4490598049        0.8089943310       -0.0124020044
 H          7.6001449840        2.6320972113       -0.0512200868
