  24
        -37.07446533
 C          4.2012444778        0.5859577501       -0.0360294477
 C          3.2460955063       -0.3299581031        0.0811781852
 C          1.8045586251       -0.1260297167        0.0524275201
 C          0.9682212786       -1.2433663719        0.1035472607
 C         -0.4170202366       -1.1713397771        0.0814353258
 C         -1.2434558918       -2.3716889802        0.1423505382
 C         -0.8745643108       -3.5853226711       -0.2457921419
 C         -1.0196722144        0.0995986029        0.0201796046
 S         -2.7804375845        0.1883220142       -0.0174337740
 C         -3.1338006028        1.9679598469        0.0068585823
 C         -0.2183389870        1.2292160703       -0.0327778470
 C          1.1570859217        1.1083748759       -0.0167421523
 F          1.8555666812        2.2643056146       -0.0616124251
 H          5.2395867730        0.3019320446       -0.0012908640
 H          4.0037429028        1.6336461031       -0.1701540823
 H          3.5311147799       -1.3678865242        0.2072582607
 H          1.4279856619       -2.2171018088        0.1792869921
 H         -2.2452401578       -2.2151210471        0.5222381411
 H          0.0945842178       -3.7885588482       -0.6693862301
 H         -1.5434611674       -4.4246480261       -0.1681737619
 H         -4.2166719276        2.0428281484        0.0346547164
 H         -2.7578417464        2.4386196344       -0.8969236115
 H         -2.7109950818        2.4216576849        0.8983389483
 H         -0.6297154160        2.2235429540       -0.0865418640
