  29
        -51.51697778
 C         -1.1880020350        4.5907545684        0.2163432444
 C         -0.1908360787        3.7384314776        0.0147717981
 C         -0.2795276241        2.2818894046       -0.0215566292
 C         -1.4909799388        1.5962586638        0.0294121018
 C         -1.5497524888        0.2031364653       -0.0047953932
 C         -2.8628435379       -0.4225057943        0.0536191232
 C         -3.1602409899       -1.7136521184        0.0570857487
 F         -2.3337252691       -2.7462856704        0.0086515662
 F         -4.4119743067       -2.1644213362        0.1146667800
 C         -0.3603607879       -0.5177265710       -0.0943649835
 C          0.8562779489        0.1527143560       -0.1497483652
 C          2.0954890101       -0.6635161967       -0.2482385500
 O          2.1061554115       -1.8686884548       -0.2951249108
 O          3.2004097351        0.0924734476       -0.2896312552
 C          4.4478938340       -0.5968376411       -0.3690055013
 C          4.9149634550       -1.0653778587        1.0017165292
 C          0.8979788438        1.5406147219       -0.1150898155
 H         -1.0188790539        5.6536242683        0.2273949878
 H         -2.2043319394        4.2766974557        0.3813190558
 H          0.8090124533        4.1270763213       -0.1330302918
 H         -2.4137203224        2.1522264315        0.0920221254
 H         -3.7129791124        0.2427346140        0.1023413739
 H         -0.3468384408       -1.5949221426       -0.1263523121
 H          5.1441455905        0.1274120142       -0.7973418800
 H          4.3372669841       -1.4531777295       -1.0424957366
 H          4.9813726930       -0.2227206864        1.6859987569
 H          5.8924890069       -1.5306233138        0.9136404901
 H          4.2134970132       -1.7927885387        1.4027981590
 H          1.8519489874        2.0428199066       -0.1593821384
