  26
        -32.77419916
 C          3.5543148572       -1.2140592336       -0.1105786210
 C          2.8558889207       -0.1528604535        0.2707699742
 C          1.4118465205        0.0042603531        0.1103752713
 C          0.5707693720       -1.1031432404        0.1539361754
 C         -0.8068446718       -1.0102072647        0.0291125467
 C         -1.6182522297       -2.2713661581        0.0591756862
 C         -1.3755326166        0.2556339600       -0.1533769793
 C         -2.8117744420        0.5066195796       -0.2844443611
 C         -3.7811450895       -0.0641557922        0.4169853205
 C         -0.5285945941        1.3623753704       -0.2323138221
 C          0.8427205775        1.2705669987       -0.0900430875
 C          1.6926317425        2.5030837858       -0.1819373806
 H          4.6186306368       -1.2746246404        0.0417805739
 H          3.0975752520       -2.0550845000       -0.6049418027
 H          3.3718473750        0.6800767565        0.7304021027
 H          1.0093089689       -2.0783316539        0.3107008414
 H         -1.0310013093       -3.1029162746       -0.3258403164
 H         -2.5218558175       -2.1702306200       -0.5371270807
 H         -1.9081585705       -2.5165186877        1.0811649475
 H         -3.0665697869        1.2825942351       -0.9978348146
 H         -3.5882384341       -0.7972447471        1.1802130709
 H         -4.8132363656        0.2084219166        0.2710792514
 H         -0.9730433278        2.3355579972       -0.3944293304
 H          1.0852031154        3.3662705963       -0.4432488599
 H          2.4679902510        2.3820514197       -0.9370665006
 H          2.1797090687        2.7062158368        0.7721933180
