  26
        -49.80538210
 C          4.1343648593       -2.0314457524        0.5433906289
 C          2.9943259438       -2.0744223592       -0.1350202628
 C          1.9414631538       -1.0560942683       -0.1323566102
 C          0.6254900242       -1.4991696758       -0.1248023890
 C         -0.4223023702       -0.5974877523       -0.0840702803
 O         -1.7143293111       -1.1802758649       -0.0626347781
 C         -2.7780690089       -0.4213576652        0.0136920890
 F         -2.8303093093        0.3702378345        1.1035852607
 F         -2.9527002133        0.4112910909       -1.0331981972
 F         -3.8612413271       -1.1943961279        0.0592355945
 C         -0.1821261602        0.7602737005       -0.0809272135
 C          1.1267553057        1.2352037534       -0.1280643163
 C          1.3507978347        2.6805801375       -0.1755996248
 C          0.6098374072        3.5820086208        0.4539171080
 C          2.2064195680        0.3300576197       -0.1522178004
 N          3.5014351272        0.7875252977       -0.1428363518
 H          4.8390608741       -2.8449213348        0.5006570501
 H          4.3851651230       -1.2164399101        1.2008901984
 H          2.7605929798       -2.9564505172       -0.7193186471
 H          0.4056901799       -2.5543527806       -0.1292412477
 H         -0.9840814371        1.4796215231       -0.0770072069
 H          2.1787155141        3.0206968723       -0.7879105741
 H         -0.2073796072        3.3015380995        1.0962348017
 H          0.8058886531        4.6364297177        0.3634318832
 H          3.6436800987        1.7470371780       -0.4116538010
 H          4.1975402446        0.1384488820       -0.4756217022
