  27
        -43.60144949
 C         -4.3803410246        0.5408140566        0.4864128270
 C         -3.5224350540       -0.2415588115       -0.1583454469
 C         -2.0689894314       -0.1253463478       -0.1403308355
 C         -1.2943751389       -1.2699333086       -0.2262530579
 C          0.1022186676       -1.2287421680       -0.1614015134
 C          0.8941947484       -2.4480323896       -0.2550497533
 C          0.4910570051       -3.6364875122        0.1770110421
 C          0.6740613903        0.0461506875       -0.0316282566
 C          2.1414229864        0.2506549806        0.1043373442
 O          2.9436659325       -0.6007044874        0.4089068320
 O          2.4854743476        1.5164986430       -0.1512408605
 C          3.8633626370        1.8199416930       -0.0131953199
 N         -0.0492986965        1.1596541803       -0.0144627202
 C         -1.3698347656        1.1081562136       -0.0684449229
 N         -2.0068375424        2.3156083920       -0.0334489814
 H         -5.4414171579        0.3629112384        0.4371417186
 H         -4.0594809211        1.3488871257        1.1213040635
 H         -3.8973854810       -1.0871360651       -0.7236129337
 H         -1.7849195339       -2.2259997747       -0.3421264928
 H          1.8803975699       -2.3394156829       -0.6814951531
 H         -0.4589428809       -3.7837220981        0.6643030888
 H          1.1153430036       -4.5078623109        0.0824023688
 H          3.9663408341        2.8780552195       -0.2394630084
 H          4.4582251264        1.2200310264       -0.7062019789
 H          4.2000170381        1.6099510969        1.0045628159
 H         -1.3962695320        3.1038608451       -0.1807338123
 H         -2.9258326062        2.3692495844       -0.4416423703
