27
 energy: -43.601449488913 gnorm: 0.000066157722 xtb: 6.4.1 (23d549d)
C        -4.38034102460000    0.54081405660000    0.48641282700000
C        -3.52243505400000   -0.24155881150000   -0.15834544690000
C        -2.06898943140000   -0.12534634780000   -0.14033083550000
C        -1.29437513890000   -1.26993330860000   -0.22625305790000
C         0.10221866760000   -1.22874216800000   -0.16140151340000
C         0.89419474840000   -2.44803238960000   -0.25504975330000
C         0.49105700510000   -3.63648751220000    0.17701104210000
C         0.67406139030000    0.04615068750000   -0.03162825660000
C         2.14142298640000    0.25065498060000    0.10433734420000
O         2.94366593250000   -0.60070448740000    0.40890683200000
O         2.48547434760000    1.51649864300000   -0.15124086050000
C         3.86336263700000    1.81994169300000   -0.01319531990000
N        -0.04929869650000    1.15965418030000   -0.01446272020000
C        -1.36983476560000    1.10815621360000   -0.06844492290000
N        -2.00683754240000    2.31560839200000   -0.03344898140000
H        -5.44141715790000    0.36291123840000    0.43714171860000
H        -4.05948092110000    1.34888712570000    1.12130406350000
H        -3.89738548100000   -1.08713606510000   -0.72361293370000
H        -1.78491953390000   -2.22599977470000   -0.34212649280000
H         1.88039756990000   -2.33941568290000   -0.68149515310000
H        -0.45894288090000   -3.78372209810000    0.66430308880000
H         1.11534300360000   -4.50786231090000    0.08240236880000
H         3.96634083410000    2.87805521950000   -0.23946300840000
H         4.45822512640000    1.22003102640000   -0.70620197890000
H         4.20001703810000    1.60995109690000    1.00456281590000
H        -1.39626953200000    3.10386084510000   -0.18073381230000
H        -2.92583260620000    2.36924958440000   -0.44164237030000
