  46
        -76.74186484
 F         -2.5559612556       -6.1774898267        0.1473985755
 C         -2.0713941879       -4.9341957573        0.1100744800
 F         -0.7444632012       -4.9950079991        0.0471858592
 C         -2.8426360216       -3.8570540458        0.1332376206
 C         -2.4500105742       -2.4587445601        0.0971359986
 C         -1.1214531052       -2.0413957530        0.0661768633
 C         -0.8439072411       -0.6859122641        0.0269645740
 C          0.3829504145        0.0628559150        0.0064757067
 C          1.7193911512       -0.3044199328       -0.0077836820
 C          2.6928845305        0.6855422833       -0.0453427123
 C          4.1192985844        0.3269554972       -0.0523445336
 C          4.5794033633       -0.7415965728       -0.8185961446
 C          5.9201669948       -1.0777622475       -0.8257806465
 C          6.8239199245       -0.3554720963       -0.0647418061
 C          6.3776445943        0.7070524933        0.7029737395
 C          5.0378046553        1.0471914547        0.7080165133
 C          2.3092036154        2.0331030082       -0.0879746109
 C          0.9849031775        2.4203347061       -0.0807685304
 C          0.0179660679        1.4276885033       -0.0145672833
 N         -1.3600261506        1.5336628210       -0.0138766142
 C         -2.0899552778        2.7317558607       -0.0317832497
 C         -3.1044388494        2.9180474901       -0.9659198124
 C         -3.8237633382        4.0987524026       -0.9761497786
 C         -3.5327905033        5.1021305385       -0.0668734469
 C         -2.5198535028        4.9195808563        0.8598943156
 C         -1.8015001573        3.7385369624        0.8845800894
 C         -1.8924469820        0.2649238509        0.0090468529
 C         -3.2185154810       -0.1441725911        0.0658980835
 C         -3.4757312590       -1.4968426882        0.1055947906
 H         -3.9030070227       -4.0593137817        0.1829526349
 H         -0.3112508300       -2.7508534415        0.0783487197
 H          1.9972176976       -1.3467300507        0.0278650786
 H          3.8822210617       -1.2984524824       -1.4277227207
 H          6.2627223657       -1.9057334927       -1.4295203982
 H          7.8711898396       -0.6194866146       -0.0696245247
 H          7.0771822850        1.2716587184        1.3025390701
 H          4.6937973517        1.8662726947        1.3231194199
 H          3.0766499167        2.7901085812       -0.1536895827
 H          0.7140787516        3.4638058191       -0.1390546138
 H         -3.3129483859        2.1422158666       -1.6874529174
 H         -4.6097045598        4.2388565958       -1.7033420457
 H         -4.0939144473        6.0241339473       -0.0806165356
 H         -2.2925977896        5.6977519807        1.5732908983
 H         -1.0256267822        3.5831880524        1.6192616692
 H         -4.0254679887        0.5722665252        0.0899802208
 H         -4.5011599550       -1.8334232363        0.1475401001
