  18
        -22.22096466
 C         -2.9029730071       -0.0094440852        0.0000669028
 C         -1.4039145033        0.0058379326       -0.0000499807
 C         -0.6923246392        1.1958861000       -0.0000429719
 C          0.6923245843        1.1958861998       -0.0000116941
 C          1.4039144614        0.0058380656        0.0000160633
 C          2.9029729981       -0.0094440752        0.0000415111
 C          0.6902738795       -1.1879947819       -0.0000112032
 C         -0.6902737561       -1.1879948358       -0.0000426457
 H         -3.3030323914        1.0014144929       -0.0015126540
 H         -3.2774336288       -0.5300340157        0.8809491418
 H         -3.2776167020       -0.5329292624       -0.8790031121
 H         -1.2245406009        2.1369618623       -0.0000566175
 H          1.2245403914        2.1369620206       -0.0000029186
 H          3.3030323654        1.0014155886        0.0005720509
 H          3.2775387612       -0.5310152312       -0.8802092465
 H          3.2775114161       -0.5319495011        0.8797451314
 H          1.2270819124       -2.1264797484       -0.0000107078
 H         -1.2270817341       -2.1264798614       -0.0000656747
