28
 energy: -47.559727386100 gnorm: 0.000070005573 xtb: 6.4.1 (23d549d)
C         2.24326418050000   -3.50372575910000    0.08863049380000
C         1.05146908880000   -2.92530255900000   -0.00979285140000
C         0.73253536020000   -1.50373007670000   -0.03353168040000
C        -0.60350829010000   -1.12521534550000   -0.01305580040000
C        -1.01589819360000    0.20452814800000   -0.02567180760000
C        -2.44642267880000    0.52523116220000    0.02351147260000
O        -2.92034044850000    1.64759330990000    0.04252661070000
O        -3.22968818610000   -0.56515157560000    0.05441175390000
C        -4.62559751800000   -0.32125220210000    0.10657816640000
C        -0.04858607350000    1.23730031630000   -0.06589337240000
N        -0.41817985430000    2.53275954670000   -0.07009375040000
C         1.32207632890000    0.88068779310000   -0.10636506480000
C         2.34124995500000    1.93200338210000   -0.21567364060000
C         3.48699643670000    1.95936792570000    0.44850808340000
C         1.66919095350000   -0.45959356150000   -0.08478362620000
F         2.98138997760000   -0.75988327560000   -0.16289199500000
H         2.32905169390000   -4.57738097190000    0.09992045950000
H         3.16561245630000   -2.95777310350000    0.16118636660000
H         0.17265339910000   -3.55666114800000   -0.06983211980000
H        -1.36208092170000   -1.89123365060000    0.02027183500000
H        -5.10328249160000   -1.29762931820000    0.11401899370000
H        -4.94447838950000    0.25577686820000   -0.76420989100000
H        -4.88132574450000    0.23800524030000    1.00929134690000
H        -1.40628232800000    2.73395069000000    0.00592743310000
H         0.26646615100000    3.25724662690000    0.03910367090000
H         2.10594174280000    2.72848331850000   -0.91287856280000
H         3.75675306280000    1.19631106110000    1.15790348100000
H         4.20044502130000    2.75278852530000    0.30484139610000
