  23
        -42.06505042
 C          3.9960507314        1.5289373261        0.3427168345
 C          3.7000719028        0.2493928658        0.1454338617
 C          2.3647395375       -0.3112677202       -0.0094484827
 C          2.2126015880       -1.6844381627       -0.2333645312
 C          0.9673114737       -2.2560577793       -0.3811521167
 C         -0.2026691843       -1.4923723923       -0.2933849786
 C         -1.5004230073       -2.1507062236       -0.3946876010
 C         -2.5437444568       -1.8936732137        0.3797943800
 C         -0.0351824247       -0.1262431095       -0.0986210957
 S         -1.3742227247        1.0358690965       -0.1240917407
 O         -0.8736167095        2.3546979181       -0.2997213562
 O         -2.5152291124        0.6206579950       -0.8588162839
 F         -1.8051374303        0.9688335942        1.4755068048
 C          1.2029183674        0.4597456999        0.0364622623
 H          5.0166456472        1.8541013048        0.4474883711
 H          3.2455139203        2.2973976183        0.4056841883
 H          4.5015720935       -0.4765356187        0.0890306907
 H          3.0926473754       -2.3084542176       -0.2950562627
 H          0.8807718953       -3.3192814218       -0.5500236930
 H         -1.5497580149       -2.9466355066       -1.1272637270
 H         -2.5184414949       -1.1533518701        1.1573629730
 H         -3.4662161135       -2.4362348238        0.2668984267
 H          1.2347392467        1.5284580139        0.1640755050
