  24
        -28.55317595
 C          2.0911629079        2.3389624382       -0.0600218389
 C          2.0640998165        0.8169971042        0.0023465236
 C          0.6972378946        0.1815453749        0.0052043058
 C         -0.4676704512        0.9338960703       -0.0478816377
 C         -1.7241145063        0.3452290607       -0.0449594103
 C         -2.9694789986        1.1783383814       -0.1098815838
 C         -1.8080051161       -1.0383415322        0.0127861213
 C         -0.6576152496       -1.8013262729        0.0660975809
 C          0.5991499911       -1.2133033709        0.0633118272
 C          1.8248774718       -2.0745939786        0.1224187520
 H          3.1229983961        2.6850887382       -0.0559385421
 H          1.5858120445        2.7736940257        0.7994636605
 H          1.6172897989        2.7009543293       -0.9696357323
 H          2.5947709752        0.4943163732        0.9039339884
 H          2.6246517178        0.4217598342       -0.8510193675
 H         -0.4085810290        2.0102936405       -0.0927633723
 H         -2.7341917405        2.2384941287       -0.0574433931
 H         -3.6389223396        0.9283373798        0.7120992193
 H         -3.5025839529        0.9886470592       -1.0414374811
 H         -2.7761933411       -1.5186645337        0.0165113136
 H         -0.7362668266       -2.8787889855        0.1114160167
 H          1.5515481322       -3.1260575941        0.1625272795
 H          2.4215671772       -1.8396629387        1.0037709986
 H          2.4532461391       -1.9149039039       -0.7537490071
