  21
        -45.27816811
 C          3.7500021546       -0.9353628122       -0.1250280357
 C          2.6148572562       -1.5815154790        0.1307003688
 C          1.2666103949       -1.0768061448        0.0219691187
 S         -0.0036950325       -2.2616736341       -0.0006051001
 C         -1.2701311365       -1.0726817582       -0.0225989004
 C         -2.6200495401       -1.5729577740       -0.1311763283
 C         -3.7528663492       -0.9236537409        0.1268825714
 C         -0.7127037882        0.1879054497       -0.0070124150
 N         -1.4223805539        1.4337648690       -0.1638234045
 O         -2.4108615816        1.6240057190        0.5007615739
 O         -0.9642345609        2.1922650770       -0.9873920497
 C          0.7132747386        0.1855804429        0.0067998839
 N          1.4270540660        1.4290736554        0.1639948346
 O          2.4157847823        1.6164715977       -0.5010157704
 O          0.9716736155        2.1886538442        0.9880955952
 H          4.6946279761       -1.4355680978        0.0010052048
 H          3.7819462962        0.0828382856       -0.4703066300
 H          2.6507218673       -2.6231036839        0.4268722258
 H         -2.6594623110       -2.6138931547       -0.4292434722
 H         -3.7811009927        0.0940442086        0.4740466116
 H         -4.6992242589       -1.4206231536        0.0009676283
