23
 energy: -42.295882799580 gnorm: 0.000187649954 xtb: 6.5.0 (unknown)
C           -2.75300764760000        3.41670310530000        0.07414906130000
C           -1.56938575550000        2.82634522740000       -0.03561633200000
C           -1.30530271180000        1.39139978500000       -0.02259906140000
C           -2.32339774180000        0.43629712620000       -0.02230471420000
C           -2.04549094390000       -0.91982293720000       -0.00705922490000
C           -3.12434044970000       -1.95745995520000       -0.00595243820000
C           -0.71160832700000       -1.30668856500000        0.00810726250000
F           -0.43218862920000       -2.63076217290000        0.02399501930000
C            0.34550776700000       -0.39418023640000        0.00378700990000
C            1.70523981210000       -0.90931284020000        0.01742806660000
C            2.83869494280000       -0.22506616700000       -0.00189164360000
F            2.99845244930000        1.09277703530000       -0.03825737980000
F            4.03673910060000       -0.80291013690000        0.01349535000000
C            0.01859030060000        0.96022437200000       -0.01378302330000
H           -2.84441296790000        4.48888229500000        0.05683842710000
H           -3.67255681180000        2.86956357700000        0.19029883540000
H           -0.68453391640000        3.44185172920000       -0.13737615870000
H           -3.35482164270000        0.75074547830000       -0.04046833910000
H           -4.10608882880000       -1.49459576730000       -0.04548120830000
H           -3.05650839300000       -2.56904586680000        0.89295276610000
H           -3.00925258430000       -2.62120418280000       -0.86177182960000
H            1.81224689780000       -1.98417943040000        0.04509933540000
H            0.80469487240000        1.69730052870000       -0.01729045450000
