  49
        -65.99859125
 C         -6.1074669057       -0.7066797394       -0.1733905821
 C         -5.0083839244       -1.3801003506        0.1477597396
 C         -3.6356729832       -0.9118380547        0.0358030956
 C         -3.2845422364        0.3355076675       -0.4794946151
 C         -1.9663615475        0.7340404166       -0.5586446062
 C         -0.9292273107       -0.0853958980       -0.1081074050
 C         -1.2826027200       -1.3377431802        0.4017980666
 C         -2.5996702389       -1.7446570789        0.4618664406
 S         -0.0337023515       -2.4197168835        1.0455811662
 C          1.3031862898       -1.9385275156       -0.0156622814
 C          2.2662017198       -2.8781975115       -0.3188165409
 C          3.3715431218       -2.5475769749       -1.1038950672
 C          4.4280346332       -3.4933155569       -1.4286069606
 C          4.5296114702       -4.7486615812       -1.0065468357
 C          3.4414165065       -1.2444450067       -1.5957614600
 C          2.4667943215       -0.3099751748       -1.3100349865
 C          1.3815707844       -0.6253362425       -0.4912913530
 N          0.4036294650        0.3128014237       -0.1732997064
 C          0.7288073351        1.7235421331       -0.1416861062
 C          0.1981059286        2.3705044668        1.1420119212
 C          0.5920646194        3.8422034631        1.2666385398
 C         -0.1608333736        4.7478339516        0.2930333320
 C          0.2171161271        6.2234533452        0.4329226656
 C         -0.2578070910        6.8474715847        1.7399340018
 H         -7.0843826512       -1.1425699866       -0.0542878836
 H         -6.0849164884        0.2961571601       -0.5639534666
 H         -5.1066901127       -2.3853261675        0.5393601739
 H         -4.0499172948        1.0080443372       -0.8333737542
 H         -1.7406180859        1.6995703046       -0.9824303815
 H         -2.8211154227       -2.7189929814        0.8720360680
 H          2.1533052109       -3.8719503671        0.0837252681
 H          5.1964156291       -3.0966884088       -2.0816751303
 H          3.8060458871       -5.2045143114       -0.3531987659
 H          5.3549957134       -5.3726123666       -1.3033638321
 H          4.2730273695       -0.9576984473       -2.2234147643
 H          2.5479190736        0.6766738457       -1.7394576844
 H          0.3483146055        2.2427554672       -1.0291218149
 H          1.8159436558        1.8142842200       -0.1369988686
 H          0.6076238219        1.8147485367        1.9889447214
 H         -0.8884384469        2.2820288981        1.1866578803
 H          1.6673675059        3.9479113530        1.1030512884
 H          0.3789358466        4.1632754797        2.2869835561
 H         -1.2354624530        4.6360540320        0.4563769571
 H          0.0544576542        4.4371975393       -0.7314854937
 H         -0.2268943008        6.7749468720       -0.3993559300
 H          1.3019010875        6.3258030068        0.3542073301
 H         -1.3320267179        6.7189061104        1.8543906776
 H         -0.0377134671        7.9125018235        1.7495342701
 H          0.2365146201        6.3941050764        2.5949968677
