  32
        -53.33740202
 C          2.4297019048        2.8387136768        0.5337403039
 C          1.4203501080        2.5027412815       -0.2572221654
 C          0.6961689979        1.2365955461       -0.1851995264
 C         -0.6799234204        1.2291856491       -0.3846304316
 C         -1.4450326760        0.0793886588       -0.2290482901
 C         -2.9093654072        0.2525014501       -0.4197608761
 O         -3.3971379215        1.1138357360       -1.1101443808
 O         -3.6427533597       -0.6151200871        0.2900493050
 C         -5.0507255725       -0.4693634856        0.1831278923
 C         -0.8314695911       -1.1337305375        0.1224219724
 C         -1.5704467165       -2.3874786756        0.2528568830
 C         -1.2821216028       -3.3271226858        1.1427656391
 C          0.5520917318       -1.1305418978        0.2905572015
 C          1.3117017148        0.0176864618        0.1320150363
 C          2.7916656987       -0.1269909823        0.2440294585
 O          3.3617256796       -0.6726726828        1.1541148613
 O          3.4085217990        0.3614998529       -0.8390909428
 C          4.8252880277        0.2730712741       -0.8523919975
 H          2.9093450743        3.7997420083        0.4600401929
 H          2.8032363346        2.1751839459        1.2968826027
 H          1.0340495933        3.2138652879       -0.9757560090
 H         -1.1893748271        2.1448472809       -0.6483466830
 H         -5.4837617722       -1.2264933274        0.8314092038
 H         -5.3711970125       -0.6170726473       -0.8504071984
 H         -5.3537993733        0.5298806150        0.5025803864
 H         -2.3976438823       -2.5263249992       -0.4287037339
 H         -0.4917809925       -3.2068530744        1.8647631169
 H         -1.8452051674       -4.2427049795        1.1981477396
 H          1.0582521145       -2.0557718580        0.5219137108
 H          5.1344738768        0.4569282163       -1.8780897338
 H          5.1474900977       -0.7164128744       -0.5215131215
 H          5.2530832884        1.0261793642       -0.1868936846
