  23
        -42.06551756
 C          4.7698608928        0.2707164003        0.1617246513
 C          3.5299070155        0.7454075167        0.1979529153
 C          2.3012089638       -0.0318596492        0.1076723895
 C          2.2734565156       -1.4294292943        0.0718761559
 C          1.0833793695       -2.1155016517       -0.0352685457
 C         -0.1412709509       -1.4432868913       -0.1156409642
 C         -1.3747985058       -2.1884302047       -0.3292597204
 C         -2.3645585429       -1.7741550753       -1.1081163581
 C         -0.1058660652       -0.0563659596       -0.0224888307
 S         -1.6214622025        0.8761285079        0.0457560874
 O         -1.9528517545        1.4610160520       -1.2071069911
 O         -2.6224633652        0.2842194679        0.8587512163
 F         -1.0493379313        2.1363779153        0.9525545289
 C          1.0765550554        0.6406650397        0.0727176613
 H          5.6190384665        0.9277681719        0.2331604901
 H          4.9936989087       -0.7768550047        0.0564760255
 H          3.3772510991        1.8123770861        0.2960252633
 H          3.1963964044       -1.9846552695        0.1280066078
 H          1.0871814229       -3.1945858411       -0.0788764594
 H         -1.4192048117       -3.1609591652        0.1435643680
 H         -2.3276152265       -0.8372151870       -1.6365601113
 H         -3.2483098353       -2.3716885429       -1.2505267352
 H          1.0502718845        1.7168967445        0.1308420166
