  25
        -44.38243575
 C          2.3170830987       -3.2930912241       -0.1617550446
 C          1.0728650161       -2.8665702032        0.0216239987
 C          0.5885451626       -1.4918624512        0.0495741685
 C         -0.7865389385       -1.2721142477        0.0589669836
 C         -1.3431256756       -0.0015991591        0.0633216493
 C         -2.8286755478        0.0760168547       -0.0118739875
 O         -3.5580015863       -0.7276810144        0.4995653770
 O         -3.3344791686        1.0996619319       -0.7329755185
 C         -0.5124214014        1.1300745933        0.1286319149
 N         -1.0453080578        2.4088411972        0.1222443210
 C          0.8823518406        0.9462554807        0.1323894255
 C          1.7854773152        2.1013903159        0.2392226139
 C          2.8627704755        2.2902837060       -0.5060764338
 C          1.3911468081       -0.3471679028        0.0760785663
 F          2.7316345912       -0.4795336540        0.1108430730
 H          2.5371925174       -4.3472604691       -0.1666352150
 H          3.1541700114       -2.6368946726       -0.3145186302
 H          0.2842841208       -3.5968647039        0.1554249275
 H         -1.4628188721       -2.1134960609        0.0422178072
 H         -2.6404026002        1.6249641452       -1.1576985151
 H         -1.9236425798        2.5267940549        0.6065441974
 H         -0.3819537628        3.1427339896        0.3196979517
 H          1.5305582567        2.8255126227        1.0065142229
 H          3.1479213587        1.6006814865       -1.2816373726
 H          3.5002260729        3.1462750500       -0.3666667433
