  26
        -37.65747097
 C         -3.8915085993       -1.5456510227       -0.0004500497
 C         -2.9046754043       -0.4187667345       -0.0000461523
 C         -3.3300818215        0.9096380989        0.0001397033
 C         -2.3774936454        1.9134307240        0.0003162477
 C         -1.0379763461        1.5663655364        0.0002115848
 C         -0.7030743159        0.2133388242        0.0000234724
 C          0.7030805835       -0.2132066202        0.0000199603
 C          1.0378800041       -1.5662631469        0.0002675726
 C          2.3773630715       -1.9134396069        0.0003248237
 C          3.3300207964       -0.9097144468        0.0000958066
 C          2.9047192973        0.4187225948       -0.0001676767
 C          3.8916615236        1.5455114250       -0.0003581619
 N          1.6249904084        0.7483858736       -0.0001885322
 N         -1.6249235984       -0.7483169303       -0.0000570321
 H         -4.5305187709       -1.4887331157        0.8792501816
 H         -3.3625562315       -2.4938912093        0.0021710457
 H         -4.5263750795       -1.4915546205       -0.8833641871
 H         -4.3848681066        1.1406390250        0.0000671289
 H         -2.6759954387        2.9524828021        0.0004058331
 H         -0.2518311266        2.3028176083        0.0003462337
 H          0.2516623700       -2.3026338561        0.0004926250
 H          2.6757756864       -2.9525140445        0.0004931715
 H          4.3847887147       -1.1407974658       -0.0000009961
 H          4.5271601684        1.4911983379        0.8820845201
 H          3.3628039542        2.4938025851       -0.0024934349
 H          4.5300366279        1.4886354918       -0.8805337491
  26
        -37.65035635
 C         -3.3573367270       -0.2949802984       -2.0515228315
 C         -2.6859103934        0.0448578518       -0.7573521683
 C         -3.4121015135        0.5434308433        0.3242228457
 C         -2.7372982422        0.8445460291        1.4931625704
 C         -1.3699565482        0.6326456837        1.5533234407
 C         -0.7273299123        0.1243850547        0.4252509180
 C          0.7273631393       -0.1239211472        0.4252898981
 C          1.3698795320       -0.6321158987        1.5534566006
 C          2.7371467384       -0.8444868741        1.4932770399
 C          3.4119976626       -0.5438279886        0.3242417709
 C          2.6859461432       -0.0451095874       -0.7573513538
 C          3.3574883181        0.2945232308       -2.0515212906
 N          1.3811996270        0.1542969299       -0.6966404030
 N         -1.3811084123       -0.1541610940       -0.6966364248
 H         -4.1117887607       -1.0647269099       -1.8965628300
 H         -2.6153961307       -0.6548627541       -2.7574611673
 H         -3.8507037065        0.5837856504       -2.4634029623
 H         -4.4782945021        0.6930074454        0.2423149701
 H         -3.2676108906        1.2418469735        2.3475044817
 H         -0.8109923588        0.8759999897        2.4437516834
 H          0.8108699092       -0.8751043860        2.4439534381
 H          3.2673471272       -1.2418420662        2.3476463229
 H          4.4781212126       -0.6938565969        0.2422819747
 H          4.1104691705        1.0657682244       -1.8968876449
 H          2.6153634366        0.6524802592       -2.7582115594
 H          3.8526802309       -0.5837507324       -2.4622428978
