  26
        -37.65747097
 C         -3.8915085993       -1.5456510227       -0.0004500497
 C         -2.9046754043       -0.4187667345       -0.0000461523
 C         -3.3300818215        0.9096380989        0.0001397033
 C         -2.3774936454        1.9134307240        0.0003162477
 C         -1.0379763461        1.5663655364        0.0002115848
 C         -0.7030743159        0.2133388242        0.0000234724
 C          0.7030805835       -0.2132066202        0.0000199603
 C          1.0378800041       -1.5662631469        0.0002675726
 C          2.3773630715       -1.9134396069        0.0003248237
 C          3.3300207964       -0.9097144468        0.0000958066
 C          2.9047192973        0.4187225948       -0.0001676767
 C          3.8916615236        1.5455114250       -0.0003581619
 N          1.6249904084        0.7483858736       -0.0001885322
 N         -1.6249235984       -0.7483169303       -0.0000570321
 H         -4.5305187709       -1.4887331157        0.8792501816
 H         -3.3625562315       -2.4938912093        0.0021710457
 H         -4.5263750795       -1.4915546205       -0.8833641871
 H         -4.3848681066        1.1406390250        0.0000671289
 H         -2.6759954387        2.9524828021        0.0004058331
 H         -0.2518311266        2.3028176083        0.0003462337
 H          0.2516623700       -2.3026338561        0.0004926250
 H          2.6757756864       -2.9525140445        0.0004931715
 H          4.3847887147       -1.1407974658       -0.0000009961
 H          4.5271601684        1.4911983379        0.8820845201
 H          3.3628039542        2.4938025851       -0.0024934349
 H          4.5300366279        1.4886354918       -0.8805337491
