  25
        -42.10955537
 C         -3.4210466342       -2.8288317678        0.0342074149
 C         -3.3373577755       -1.5057180849       -0.0559250790
 C         -2.0803305829       -0.8051886226       -0.0093998025
 N         -0.8930657257       -1.3191282227        0.1212162333
 C         -0.0291124438       -0.2663740110        0.1148963189
 C          1.4196369088       -0.4871095459        0.2373000559
 O          1.9495688074       -1.5660107904        0.2607969455
 O          2.0898991384        0.6771974606        0.3308607010
 C          3.5121324512        0.5850705242        0.4321967768
 C          4.1595242173        0.4375921458       -0.9372984951
 C         -0.7631623178        0.9049769838       -0.0290776637
 C         -0.3785177065        2.2868405212       -0.1087621434
 C         -1.2503026724        3.2824433285       -0.2532720856
 O         -2.0633220758        0.5454653377       -0.1072878754
 H         -4.3673924297       -3.3388383662       -0.0019524253
 H         -2.5309972855       -3.4227808649        0.1465202704
 H         -4.2077200276       -0.8750384444       -0.1695594182
 H          3.7667657446       -0.2715203128        1.0646196698
 H          3.8213916918        1.5129818251        0.9182181771
 H          3.8459272882       -0.4970672527       -1.3953953286
 H          5.2404106502        0.4321588627       -0.8301963047
 H          3.8695468878        1.2631831638       -1.5831606305
 H          0.6833770526        2.4627745245       -0.0407342267
 H         -2.3095839387        3.0982432148       -0.3174712416
 H         -0.9280585600        4.3069392363       -0.3105057801
