  31
        -50.04441810
 C         -7.1168012944        0.6461435621        0.0251764352
 C         -6.4391801759       -0.4989408865        0.0018699402
 C         -5.0085769362       -0.6114258187       -0.0050153465
 C         -4.2682910308       -1.7689087151       -0.0236750438
 C         -2.8865692903       -1.5537078745       -0.0244684143
 C         -2.5455504777       -0.2213925454       -0.0066960209
 C         -1.2451698787        0.3540158573       -0.0019949932
 C         -0.9011889388        1.6864868724        0.0096749265
 C          0.4776789197        1.9059557303        0.0119731541
 C          1.2179903213        0.7439861751        0.0017339451
 C          2.6354742566        0.6071381806        0.0017978205
 C          3.5838486362        1.6073709914        0.0098663935
 C          4.8963105451        1.1284074918        0.0091995618
 C          4.9831029142       -0.2438214342        0.0001624159
 C          6.1378406576       -1.0990690122       -0.0031527995
 C          7.4029614172       -0.6838391409        0.0066048571
 S          3.3957952390       -0.9546696253       -0.0074139452
 S          0.1765398619       -0.6506913689       -0.0107494953
 S         -3.9670462276        0.7833861506        0.0114213226
 H         -8.1919028373        0.6676606922        0.0288259537
 H         -6.6099125189        1.5968353026        0.0409283272
 H         -6.9642361379       -1.4458298834       -0.0134675348
 H         -4.7183049603       -2.7460842421       -0.0360573983
 H         -2.1505860733       -2.3384020361       -0.0375179030
 H         -1.6367440103        2.4715141752        0.0166107455
 H          0.9226755689        2.8841144479        0.0207078057
 H          3.3324820321        2.6524660242        0.0163695747
 H          5.7574691697        1.7716430388        0.0147181870
 H          5.9205007315       -2.1593278124       -0.0137800991
 H          7.6641317620        0.3599545021        0.0176366925
 H          8.2199380452       -1.3832237506        0.0038873363
