  21
        -29.76063681
 C         -3.2731304582        0.1466032610        0.0000022252
 C         -1.7833575767        0.1037799106        0.0000011968
 S         -0.8966973679        1.6141085886        0.0000005647
 C         -0.9714238422       -0.9817924728       -0.0000000620
 C         -1.4379687292       -2.4012930716       -0.0000053437
 C          0.4196034673       -0.6296770817        0.0000002753
 C          0.6197578631        0.7627170070       -0.0000007086
 C          1.8881735911        1.3203883991       -0.0000035106
 C          2.9760001384        0.4714614880       -0.0000022716
 C          2.7993863203       -0.9112454212        0.0000030692
 C          1.5379505419       -1.4644707607        0.0000037308
 H         -3.6181728704        1.1772824259       -0.0000060734
 H         -3.6725211318       -0.3523174221        0.8832362599
 H         -3.6725231030       -0.3523323544       -0.8832223947
 H         -2.5224709999       -2.4558671504       -0.0000367316
 H         -1.0615270709       -2.9192257193        0.8817743986
 H         -1.0614750186       -2.9192337201       -0.8817579570
 H          2.0136137206        2.3922384142       -0.0000068220
 H          3.9743808575        0.8824352442       -0.0000034368
 H          3.6666795196       -1.5550617223        0.0000105218
 H          1.4076294736       -2.5362329324        0.0000109455
