  46
        -51.58571421
 C         -3.9011467021       -2.0717778442       -0.1541029207
 C         -2.7901939139       -1.0783529267       -0.1701958708
 C         -1.4601375441       -1.3148758649        0.0083952250
 N         -0.7533463764       -0.1425699624       -0.0823712302
 Si         0.9740429756        0.1343585120        0.1591504855
 C          1.1486248248        0.7528468696        1.9784436936
 C          2.5865606700        1.0959458208        2.3645492363
 C          0.2415976614        1.9466236696        2.2736656554
 C          1.9974149392       -1.4793223943       -0.0696438730
 C          1.8678220921       -2.4502041685        1.1041819917
 C          1.6941591675       -2.1991727356       -1.3832282453
 C          1.4964262022        1.4780248115       -1.1227748719
 C          3.0131453717        1.5542284775       -1.3004343636
 C          0.8418286163        1.2976832440       -2.4934892605
 C         -1.6733845820        0.8517019762       -0.3146043830
 C         -2.9282914692        0.3249940904       -0.3789253384
 C         -4.2078854943        1.0506974311       -0.6183309986
 H         -3.5147131531       -3.0710191926        0.0317158973
 H         -4.4282962339       -2.0724357531       -1.1082405555
 H         -4.6232187894       -1.8255687472        0.6244947027
 H         -0.9638949966       -2.2441253034        0.1988059891
 H          0.8182287975       -0.0642763801        2.6296256887
 H          2.9241241370        1.9773289271        1.8247958409
 H          3.2631572686        0.2752384776        2.1402380439
 H          2.6538609547        1.3119060492        3.4301056640
 H          0.5219496668        2.8039807925        1.6656543204
 H          0.3237663250        2.2359118901        3.3204910761
 H         -0.7969423738        1.7021112795        2.0674424128
 H          3.0495797782       -1.1763476585       -0.1067840776
 H          0.8443813460       -2.7942323792        1.2232539855
 H          2.1764764403       -1.9810001064        2.0342197957
 H          2.4985117210       -3.3236401228        0.9405529428
 H          0.6453328493       -2.4748124563       -1.4470778936
 H          2.2913838805       -3.1070378350       -1.4644476544
 H          1.9282846325       -1.5663832114       -2.2347003883
 H          1.1681893212        2.4477914002       -0.7329900027
 H          3.3926250082        0.6371056774       -1.7442571546
 H          3.5174294997        1.7063162472       -0.3506386925
 H          3.2754240827        2.3797804415       -1.9609769039
 H          1.1972802493        0.3898975657       -2.9737201221
 H          1.0880748546        2.1383494919       -3.1412289892
 H         -0.2391548934        1.2333238927       -2.4113689835
 H         -1.3622097195        1.8725186742       -0.4119177829
 H         -4.0233698622        2.1154162805       -0.7393867679
 H         -4.8918393716        0.9067335985        0.2181250130
 H         -4.6981651577        0.6759826095       -1.5169223496
