  18
        -27.01079431
 C          3.3839056278       -0.0031622560        0.0009997418
 C          1.8927647641       -0.0950381820        0.0000483432
 C          1.2320498895       -1.3238310427       -0.0007032795
 N         -0.0754407650       -1.4481911087       -0.0007877128
 C         -0.8226838860       -0.3459371805       -0.0003312216
 C         -2.2302196712       -0.5403397876        0.0002862348
 N         -3.3684570717       -0.6744657446        0.0010640447
 C         -0.2848783690        0.9493879455       -0.0002548903
 C         -1.1435947903        2.1730130117       -0.0005003399
 C          1.1008934584        1.0463748441        0.0000312213
 H          3.8336157226       -0.9925503021        0.0014156225
 H          3.7281073160        0.5390476755        0.8809627226
 H          3.7293350314        0.5388725031       -0.8785868744
 H          1.7860290904       -2.2535942832       -0.0011189251
 H         -2.1990546368        1.9129550885        0.0005223406
 H         -0.9316708816        2.7786757584       -0.8812905430
 H         -0.9302388527        2.7801580020        0.8789067202
 H          1.5646778279        2.0238930205        0.0004037910
