  23
        -36.36080208
 C         -4.1787009252       -1.1429843259       -0.2076679472
 C         -3.2781995774       -0.1881345242       -0.0121987712
 C         -1.8274627566       -0.3426063937       -0.0482824894
 C         -1.1776793816       -1.5585412047       -0.2865294011
 C          0.2023071818       -1.5753412978       -0.2948405941
 C          0.9158842135       -0.4019625204       -0.0630282236
 C          2.4074895956       -0.4404050005       -0.0518924934
 N          2.9405858511       -1.1197781251       -1.1001918383
 O          3.1012782331        0.0563802756        0.8087377118
 C          0.1812269016        0.7766143935        0.1776402160
 C          0.8412860772        2.0550212969        0.4212180983
 C          0.1710040097        3.1891637778        0.5869966661
 N         -1.1459488307        0.7753772382        0.1688523760
 H         -5.2336014764       -0.9334247717       -0.1613733614
 H         -3.9122906592       -2.1648030150       -0.4194844966
 H         -3.5928401293        0.8249177408        0.1978988872
 H         -1.7363722128       -2.4648191979       -0.4538584224
 H          0.7319381675       -2.5050662163       -0.4553736598
 H          2.3797461203       -1.4612544122       -1.8595712475
 H          3.9429511457       -1.1780825456       -1.1731635033
 H          1.9187619637        2.0293141717        0.4783668547
 H         -0.9044998060        3.2023481839        0.5411017276
 H          0.6732709920        4.1229405484        0.7717316635
