  37
        -65.90979926
 F          6.7271330226       -0.2038891055       -0.1304406630
 C          5.4391901639       -0.0126270500        0.1489993223
 F          5.3430321125        0.6829730361        1.2756675293
 C          4.4581810898       -0.4689977907       -0.6166941138
 C          3.0245119421       -0.3300475249       -0.4293394940
 C          2.4474155096        0.3311694047        0.6578352051
 C          1.0764455697        0.4278045306        0.7750423364
 C          0.2416546416       -0.1292595648       -0.1909062609
 N         -1.1577022296       -0.0248762966       -0.0708370749
 C         -1.7809543256        1.2265477209       -0.0773305666
 C         -3.1750062549        1.2997994447        0.0448005560
 O         -3.9654610018        0.1829689286        0.1535903834
 C         -3.3396386432       -1.0383861799        0.1528779988
 C         -1.9482012210       -1.1710401358        0.0525855239
 C         -1.4014181884       -2.4457485402        0.1294815111
 C         -2.2148773999       -3.5618676368        0.2544350708
 C         -3.5863091305       -3.4226635128        0.3163607174
 C         -4.1463058245       -2.1543902292        0.2748919339
 C         -3.8188321017        2.5231330322        0.0414811604
 C         -3.0929765168        3.6965860095       -0.0995382411
 C         -1.7234546900        3.6333106420       -0.2558140528
 C         -1.0725724070        2.4088419065       -0.2507817949
 C          0.8077527568       -0.7908440802       -1.2782530575
 C          2.1778897256       -0.8893541570       -1.3909913355
 H          4.7787984788       -1.0125535720       -1.4938444972
 H          3.0676754714        0.7669731757        1.4233605090
 H          0.6400630261        0.9327101652        1.6240168211
 H         -0.3300765975       -2.5686144827        0.1009042089
 H         -1.7620012981       -4.5399862172        0.3066330882
 H         -4.2238715289       -4.2876114266        0.4085847920
 H         -5.2124593105       -2.0080132689        0.3420547810
 H         -4.8920628746        2.5347200476        0.1448004484
 H         -3.6036059022        4.6465145266       -0.0978584392
 H         -1.1461120812        4.5354745551       -0.3871159903
 H         -0.0037170002        2.3742376364       -0.3918584796
 H          0.1652302374       -1.2189125840       -2.0333244394
 H          2.6052086145       -1.3999365643       -2.2414197942
