  22
        -32.98815178
 C          1.0430405130       -2.5867549900       -0.0039143647
 C          1.5165599618       -1.1721990358       -0.0015471449
 C          2.8931082922       -0.8520704354       -0.0005270264
 C          3.1439884507        0.4804908713        0.0015192585
 S          1.6975120871        1.3995126889        0.0021541525
 C          0.7140860051       -0.0479145800       -0.0002604885
 C         -0.7140860797        0.0479144987       -0.0002604786
 S         -1.6975121639       -1.3995126793        0.0021545927
 C         -3.1439885070       -0.4804908354        0.0015187559
 C         -2.8931081920        0.8520704652       -0.0005273122
 C         -1.5165599201        1.1721990617       -0.0015471194
 C         -1.0430403831        2.5867549662       -0.0039138926
 H          1.8968635800       -3.2597214390       -0.0067035345
 H          0.4333332686       -2.7931984687       -0.8833257418
 H          0.4361454781       -2.7970361206        0.8765469804
 H          3.6663660981       -1.6002073658       -0.0013055229
 H          4.0887507504        0.9862190231        0.0026252124
 H         -4.0887508114       -0.9862189883        0.0026245894
 H         -3.6663659991        1.6002074398       -0.0013056948
 H         -1.8968633875        3.2597213874       -0.0067015000
 H         -0.4333341441        2.7931989806       -0.8833259096
 H         -0.4361440688        2.7970354068        0.8765467231
  22
        -32.98492066
 C          1.0293942434       -1.3164387497        2.1652653900
 C          1.5200687266       -0.6452082319        0.9248660137
 C          2.8923857680       -0.5828984360        0.5742278773
 C          3.1144180273        0.0175436329       -0.6200723299
 S          1.6563803544        0.5325945549       -1.3674048482
 C          0.7183250864       -0.0701067753       -0.0257582899
 C         -0.7183266985        0.0700999187       -0.0257574989
 S         -1.6563959993       -0.5326284439       -1.3673815908
 C         -3.1144185760       -0.0174795812       -0.6200861314
 C         -2.8923772881        0.5829391181        0.5742244919
 C         -1.5200599931        0.6452157050        0.9248668604
 C         -1.0293739361        1.3164197110        2.1652762727
 H          1.5434088226       -2.2668996476        2.2982765690
 H         -0.0403272046       -1.4979082189        2.1049474571
 H          1.2306543537       -0.7010644138        3.0422124154
 H          3.6744850610       -0.9828962861        1.1952778409
 H          4.0481692561        0.1905568200       -1.1170551986
 H         -4.0481731658       -0.1904762419       -1.1170686454
 H         -3.6744703367        0.9829364720        1.1952823630
 H         -1.5432971772        2.2669384085        2.2982375904
 H          0.0403694466        1.4977778295        2.1050022251
 H         -1.2307427929        0.7010846806        3.0422271836
