  20
        -32.77751353
 C          3.6806674929        0.1854339765       -0.0025077579
 C          2.1878629895        0.1417089504        0.0182488539
 C          1.4831354410       -1.0517577311       -0.0964282147
 C          0.0947149046       -1.0552576357       -0.0906671858
 C         -0.6668232712       -2.3297787636       -0.2195211476
 C         -0.5497825196        0.1874822649        0.0264956716
 C         -2.0338130433        0.2995094419        0.0626998995
 O         -2.7611449387       -0.5234259949        0.5461566919
 O         -2.5448919738        1.4196552048       -0.4877956923
 C          0.2492023869        1.3226946580        0.1648190072
 N          1.5645810800        1.3077476846        0.1581120681
 H          4.1026253901       -0.8089106436       -0.1150387860
 H          4.0452105101        0.6317491450        0.9205280451
 H          4.0167819119        0.8169942852       -0.8225657990
 H          2.0198284208       -1.9838741952       -0.1928406924
 H          0.0043147773       -3.1631955658       -0.4110944100
 H         -1.3983948778       -2.2628749224       -1.0225264830
 H         -1.2230467486       -2.5180544816        0.6971060341
 H         -1.8658299863        1.9927786196       -0.8675730695
 H         -0.1887204841        2.3033434727        0.3212644852
