  24
        -42.12758878
 C         -2.1127808311       -2.7058037694        0.5513336930
 C         -0.9325532402       -2.7402450661       -0.0541693132
 C          0.0417039714       -1.6530037744       -0.1004495999
 C          1.3914791310       -1.9795656180       -0.0076955180
 C          2.3827863561       -1.0183653095        0.0277284033
 C          2.0340794993        0.3268869373       -0.0492796297
 O          2.9106246232        1.3648978728       -0.0290501384
 C          4.2836254917        1.0855330968        0.0999000777
 C          0.6906075690        0.6712281672       -0.1791429906
 C         -0.3080412337       -0.2927436765       -0.2069997384
 C         -1.6965062931        0.0924520585       -0.4370871483
 C         -2.2688707417        1.2286026538       -0.0755945804
 F         -1.7285630901        2.2235092662        0.6194097816
 F         -3.5394945421        1.5310323038       -0.3465912347
 H         -2.7626213636       -3.5643801710        0.5624057303
 H         -2.4617716979       -1.8366640929        1.0826029237
 H         -0.6021050638       -3.6630544210       -0.5163300305
 H          1.6712908804       -3.0212713559        0.0592396362
 H          3.4128212816       -1.3265263545        0.1108394142
 H          4.7814494842        2.0537877528        0.1043588682
 H          4.6546722281        0.4929236555       -0.7426873493
 H          4.5017119873        0.5631520084        1.0369284685
 H          0.4515527148        1.7173556942       -0.2769650042
 H         -2.3249431478       -0.6133609308       -0.9601376172
