  19
        -35.16488204
 C         -1.7743330007       -3.1618191821        0.2845832772
 C         -0.9790301087       -2.2181372078       -0.2009194400
 C         -1.2125284324       -0.7848613545       -0.0370290434
 C         -2.5114470322       -0.2729011680       -0.0672364738
 N         -2.8118071065        1.0051542959        0.0389545409
 C         -1.8175783493        1.8674932371        0.1720579472
 C         -0.4862044711        1.4910810222        0.2079419334
 C         -0.1601998122        0.1386153932        0.1078934832
 C          1.2163568871       -0.3343549802        0.2077126282
 C          2.3103881184        0.3573804385       -0.0709437198
 F          2.3887146062        1.5999495223       -0.5260412675
 F          3.5383631991       -0.1372049213        0.0537883402
 H         -1.5724192625       -4.2068633231        0.1242817909
 H         -2.6439568888       -2.9270265038        0.8750153546
 H         -0.1010708949       -2.4949680862       -0.7702942761
 H         -3.3524562963       -0.9398385715       -0.2031121489
 H         -2.1051378725        2.9065467698        0.2573423683
 H          0.2804115691        2.2373395020        0.3354565878
 H          1.3724135276       -1.3482461850        0.5431851865
