  39
        -45.47746603
 C         -5.7666730577        0.3327834459       -1.6639756788
 C         -5.5425278428        1.2607735293       -0.4755391338
 C         -4.0917369597        1.2766927636        0.0071397925
 C         -3.6473451582       -0.0543061073        0.6108833235
 C         -2.2929724681        0.0278727224        1.3174758510
 C         -1.1201245044        0.4219270815        0.4186533302
 C         -0.8616639883       -0.5719175986       -0.7103904962
 C          0.4087264742       -0.2280483944       -1.4980161546
 C          1.6378290109       -0.3375588850       -0.6494447986
 C          2.1440671434       -1.5867634042       -0.1958815310
 C          3.2526940719       -1.4871770867        0.5773941405
 C          4.0456092869       -2.5709748634        1.2167342528
 S          3.7146368318        0.1763637058        0.7714078967
 C          2.3815455909        0.7139573227       -0.2076863060
 C          2.1936917588        2.1704929223       -0.4632286823
 H         -6.7908483994        0.4162039690       -2.0209735144
 H         -5.5880956629       -0.7033977673       -1.3888348893
 H         -5.0974060887        0.5934852662       -2.4814548610
 H         -6.1942314183        0.9588959564        0.3477764514
 H         -5.8250220189        2.2764620134       -0.7637541031
 H         -3.9836778750        2.0579401978        0.7641525105
 H         -3.4457026728        1.5361286592       -0.8335168846
 H         -3.6051757570       -0.8186528428       -0.1651685603
 H         -4.3936273094       -0.3725212896        1.3438465481
 H         -2.0764816984       -0.9447463911        1.7671704967
 H         -2.3646651026        0.7557102569        2.1300624525
 H         -0.2228492680        0.4833964112        1.0395700704
 H         -1.2963295404        1.4131291140       -0.0034652751
 H         -1.7059729353       -0.5767656989       -1.4017943147
 H         -0.7639536146       -1.5750127373       -0.2894583052
 H          0.3233480432        0.7832313655       -1.8984586840
 H          0.4993360254       -0.9201175518       -2.3398360464
 H          1.6888588607       -2.5285100415       -0.4498403218
 H          3.6028802580       -3.5376787839        0.9879179832
 H          4.0716820314       -2.4432309045        2.2988680577
 H          5.0739672974       -2.5610638995        0.8555085577
 H          2.9732086198        2.7410247136        0.0352594495
 H          1.2260771837        2.5072821753       -0.0913138362
 H          2.2399122820        2.3832972726       -1.5318327557
