  24
        -41.27978986
 C          4.3638464861       -1.4755742117        0.1477216729
 C          3.0998577434       -1.8606189558        0.0176791546
 C          1.9172163211       -1.0073282341        0.0220092640
 C          1.9873468728        0.3816928787        0.1277264172
 C          0.8643612711        1.2147840585        0.1215345622
 C          1.0404009265        2.6643075719        0.1982429973
 C          0.2818913696        3.5657959574       -0.4110803848
 C         -0.3747845093        0.5872645005        0.0468998555
 C         -0.4696005386       -0.8110856917       -0.0550174097
 C          0.6572349815       -1.6084733279       -0.0802734272
 C         -1.8904193679       -1.1707277089       -0.1000263201
 O         -2.4092503118       -2.2508072773       -0.2075597811
 C         -2.6300053834        0.1885367422        0.0326693568
 O         -3.8140778765        0.3964274331        0.0769970882
 N         -1.6463494698        1.1388245904        0.0918369306
 H          5.1670751596       -2.1915543740        0.1331507438
 H          4.6557795430       -0.4472784932        0.2745749679
 H          2.8847609902       -2.9149236440       -0.1023593393
 H          2.9553376906        0.8534270331        0.2013479817
 H          1.8953841869        2.9892727165        0.7777241902
 H         -0.5378334488        3.2942494776       -1.0554026139
 H          0.4837435586        4.6193718421       -0.3221287242
 H          0.5558620112       -2.6796893399       -0.1647266646
 H         -1.8244064940        2.1200985186        0.2427530849
