21
 energy: -30.126002477841 gnorm: 0.000111588242 xtb: 6.4.1 (23d549d)
C        -3.80894706820000   -0.60866915210000   -0.00072107430000
C        -2.90611718530000    0.36416966590000    0.00053381420000
C        -1.45995299580000    0.19589665940000    0.00025816120000
C        -0.80234429410000   -1.04237441900000   -0.00051064400000
C         0.57706291420000   -1.06463327980000   -0.00073311520000
C         1.32814639510000   -2.35767563140000   -0.00267991970000
C         1.22365257190000    0.19396257650000    0.00076638580000
C         2.67542939630000    0.32596689140000    0.00254501640000
C         3.29260189950000    1.50197515370000   -0.00078716120000
N         0.52369156260000    1.32597182890000    0.00118707280000
N        -0.76372016320000    1.33332763670000    0.00063413480000
H        -4.86322384290000   -0.39179202890000   -0.00062258620000
H        -3.54479407940000   -1.65310279050000   -0.00229756830000
H        -3.21326591090000    1.40091579860000    0.00173854820000
H        -1.36289199240000   -1.96572692290000   -0.00120706130000
H         0.63631630670000   -3.19718315130000   -0.00653075900000
H         1.96086146910000   -2.43331568190000    0.88092738380000
H         1.96481610780000   -2.42836012780000   -0.88382461920000
H         3.24372665440000   -0.59300605490000    0.00671358760000
H         2.72333791580000    2.41514411700000   -0.00478161600000
H         4.36633291660000    1.57980693770000    0.00040750650000
