  24
        -37.20325704
 C          1.3948943838        1.7979123001       -1.8110844623
 C          2.2167285404        1.0792121739       -1.0568781250
 C          1.8535226339       -0.0994674233       -0.2892832236
 C          2.7955636784       -1.1221741475        0.0129587501
 C          2.2572568747       -2.1667743636        0.6830561011
 S          0.5803084258       -1.9452953027        0.9968051547
 C          0.5971081777       -0.4047210240        0.1822573213
 C         -0.5970511652        0.4049051860        0.1823475724
 S         -0.5806527670        1.9457535420        0.9964712670
 C         -2.2578201688        2.1663414681        0.6831796836
 C         -2.7959348749        1.1212861791        0.0136134763
 C         -1.8535045726        0.0989600078       -0.2885488593
 C         -2.2159343370       -1.0805748337       -1.0553178490
 C         -1.3941026553       -1.7961183341       -1.8124482011
 H          1.7447661324        2.6524792595       -2.3639248150
 H          0.3510763458        1.5544228633       -1.9150248693
 H          3.2684318479        1.3340642954       -1.0140774583
 H          3.8288624279       -1.0700129145       -0.2816331348
 H          2.7388591509       -3.0631324397        1.0200738212
 H         -2.7396445296        3.0626888030        1.0199101473
 H         -3.8292690449        1.0685967858       -0.2807358530
 H         -3.2666465897       -1.3388336382       -1.0090311130
 H         -0.3514635803       -1.5488371246       -1.9194091211
 H         -1.7426768865       -2.6515589942       -2.3647403891
