  18
        -30.67918230
 C          2.5094842228       -1.4796498882       -0.0001512679
 C          1.2104183962       -0.7390787275        0.0000594022
 C         -0.0154111703       -1.3854087921        0.0000777712
 C         -1.1907451600       -0.6553493456        0.0000351907
 F         -2.3582651929       -1.3385554402        0.0000381000
 C         -1.2171915633        0.7328589091       -0.0000596819
 C         -2.4989803894        1.5055585059       -0.0000973781
 C          0.0126516820        1.3810492699       -0.0000105728
 C          1.1839353425        0.6525614115        0.0000463994
 F          2.3585037258        1.3228913399        0.0000741130
 H          2.3428991735       -2.5527562988        0.0023017295
 H          3.0966004528       -1.2081716865        0.8762896304
 H          3.0940731909       -1.2119205704       -0.8794556038
 H         -0.0679129846       -2.4629630864        0.0001112248
 H         -3.3536762439        0.8351312263       -0.0026031971
 H         -2.5520725232        2.1457168901       -0.8793947162
 H         -2.5543898289        2.1418634476        0.8818740391
 H          0.0595607707        2.4589069778       -0.0000449427
