32
 energy: -39.103349135530 gnorm: 0.000027956766 xtb: 6.4.1 (23d549d)
C         3.59185195710000   -2.01246055500000   -0.11151576910000
C         2.28020827520000   -2.05721199380000    0.08522690820000
C         1.35334313010000   -0.93037158740000    0.04513874940000
C         1.78122734980000    0.39282156850000    0.00738861190000
C         0.86188086100000    1.43346630330000   -0.03663905880000
C         1.26276282010000    2.83665349030000   -0.06921225790000
C         2.48068645630000    3.31871578330000    0.14435616720000
C        -0.50228367780000    1.13187988480000   -0.05348050500000
C        -0.96195894930000   -0.17523967800000   -0.00734456600000
C        -2.44119672590000   -0.53233827610000   -0.01194947900000
C        -3.34705606930000    0.69964691210000   -0.08809629550000
C        -2.73924703250000   -1.41890567960000   -1.22923274810000
C        -2.77446214500000   -1.29145299670000    1.28006214720000
C        -0.01567202160000   -1.19207282350000    0.04742329500000
H         4.19593509930000   -2.90261812820000   -0.06731727460000
H         4.11751205150000   -1.09907294720000   -0.33135034370000
H         1.81453913870000   -3.01579260520000    0.28257988020000
H         2.83604101420000    0.61232237980000    0.01253772690000
H         0.45605490350000    3.53028543460000   -0.27585096370000
H         3.32425649240000    2.69075171630000    0.37458390970000
H         2.67988365880000    4.37605632540000    0.10427387540000
H        -1.19725860750000    1.95545697700000   -0.09402084310000
H        -3.16490683830000    1.26365248430000   -1.00007733200000
H        -3.19768811270000    1.34985281280000    0.77088572660000
H        -4.38844336860000    0.38360846160000   -0.09177115650000
H        -2.48078769180000   -0.89559230910000   -2.14759975450000
H        -3.79772166540000   -1.66912756680000   -1.26041727680000
H        -2.17260317090000   -2.34518502150000   -1.19503388490000
H        -2.54495827640000   -0.67575880990000    2.14744330090000
H        -2.20432273030000   -2.21307562440000    1.35711697120000
H        -3.83282603900000   -1.54280932480000    1.30509692420000
H        -0.33470076190000   -2.22362958090000    0.08359481870000
