  47
        -61.77967803
 C         -4.7891133936        3.3288846156        0.5611810090
 C         -3.7437973921        3.2811658747       -0.5466324908
 C         -2.4574708172        4.0306773111       -0.1952861184
 C         -1.7055370476        3.4902668144        1.0237594716
 C         -1.2632381389        2.0313647701        0.9146322876
 C         -0.2292314524        1.8078474839       -0.1935010622
 N          0.2939923168        0.4598379512       -0.1322477062
 C         -0.5763579035       -0.6232739655       -0.2533299041
 C         -1.7710394514       -0.5352611190       -0.9645266405
 C         -2.6316999283       -1.6147996178       -1.0577729028
 C         -2.3248655376       -2.8317683864       -0.4692897718
 C         -3.2484125953       -4.0079933788       -0.5582342207
 C         -1.1209405042       -2.9379502474        0.2166919639
 C         -0.2711128632       -1.8548535441        0.3318669320
 S          1.2121587612       -2.0389459338        1.2863256674
 C          2.2358350592       -0.8940938687        0.4002851819
 C          3.5962089392       -1.1306680771        0.3459258981
 C          4.4508633028       -0.2407010255       -0.2922788650
 C          5.9293169753       -0.4820119723       -0.3027649537
 C          3.8926159161        0.8736488613       -0.9001406712
 C          2.5279958163        1.1002817574       -0.8698296719
 C          1.6678601411        0.2337794315       -0.1978309013
 H         -5.7184469058        2.8772463106        0.2212948720
 H         -4.9934536406        4.3583353031        0.8478704010
 H         -4.4526208327        2.7855722363        1.4402710312
 H         -4.1634814912        3.7347387643       -1.4482811231
 H         -3.5182047541        2.2402244504       -0.7830968559
 H         -2.7093867009        5.0758708860        0.0021842377
 H         -1.7956083183        4.0189475727       -1.0640005939
 H         -2.3383892738        3.5932729615        1.9066204237
 H         -0.8229186410        4.1152619130        1.1842750397
 H         -2.1284550035        1.3880185602        0.7568759456
 H         -0.8068150320        1.7328307882        1.8617686253
 H          0.6018579439        2.4938524312       -0.0215424609
 H         -0.6567559778        2.0311007441       -1.1784457650
 H         -2.0354769860        0.3859595151       -1.4588101588
 H         -3.5561498280       -1.5017982061       -1.6057230959
 H         -4.1356624365       -3.7616483878       -1.1357394252
 H         -3.5575488627       -4.3239591728        0.4373570529
 H         -2.7463403249       -4.8500718602       -1.0327357235
 H         -0.8451411807       -3.8682520636        0.6906028400
 H          3.9893435367       -2.0129507166        0.8287433065
 H          6.1461897894       -1.5376374796       -0.4512218509
 H          6.3645971470       -0.1821440275        0.6510010616
 H          6.4098928535        0.0917736465       -1.0912995656
 H          4.5290813129        1.5762832614       -1.4183356691
 H          2.1302217795        1.9620556337       -1.3832717587
