  17
        -32.83846475
 C          4.4913744844       -0.0082952781       -0.0027822516
 C          3.2824436624        0.5483081826       -0.0019311950
 C          2.0366363224       -0.1713477285        0.0007216891
 C          1.7985558283       -1.5253336123        0.0037727687
 C          0.4383814071       -1.8486242980        0.0043838002
 C         -0.3853775236       -0.7466444614        0.0018157596
 C         -1.8182777412       -0.7701276507        0.0007537253
 C         -2.6227298312        0.2874161432       -0.0004396262
 F         -2.2528513888        1.5623838686       -0.0003340993
 F         -3.9505308786        0.2058471509       -0.0019711640
 S          0.5446901739        0.7182908311       -0.0010700548
 H          5.3826972029        0.5934736140       -0.0050799901
 H          4.6322323767       -1.0750517324       -0.0011189009
 H          3.1861924524        1.6262007453       -0.0039048529
 H          2.5807854044       -2.2620091304        0.0054731831
 H          0.0618775382       -2.8561863138        0.0065168867
 H         -2.2907932915       -1.7408816634        0.0005910909
