29
 energy: -37.514937985156 gnorm: 0.000057571131 xtb: 6.4.1 (23d549d)
C         2.80719964340000    2.38261273380000   -0.22022201270000
C         2.57411968890000    1.13681757600000    0.17457540060000
C         1.29394208400000    0.47068336250000    0.08339942830000
C         0.03959471910000    1.05321762370000    0.03498964170000
N        -0.87162716680000    0.06183907110000    0.05049913560000
C        -2.31892646590000    0.20329933240000   -0.00632603980000
C        -2.69791804250000    0.80724324930000   -1.36280582390000
C        -2.94463855190000   -1.18080116030000    0.14686348930000
C        -2.77690276690000    1.11541647730000    1.13605776900000
N        -0.29406206580000   -1.12974994300000    0.09917625670000
C         1.01841512750000   -0.92543896980000    0.11443283390000
C         1.91679028770000   -2.05964493440000    0.13020193830000
C         3.16383223450000   -2.06536906750000   -0.32412896170000
H         3.77559697470000    2.83947403480000   -0.10911581190000
H         2.04327173320000    2.98812344590000   -0.67873608380000
H         3.37008578570000    0.55115713770000    0.61581557080000
H        -0.23688257740000    2.08743156390000    0.01651282310000
H        -2.34792165600000    0.16587665740000   -2.16845792570000
H        -2.25299267860000    1.79169366910000   -1.48758653180000
H        -3.77762970760000    0.90399927750000   -1.43903915860000
H        -2.59485373200000   -1.84007649380000   -0.64174967840000
H        -4.02732634860000   -1.10416376620000    0.09664196680000
H        -2.66171733460000   -1.61742890030000    1.10032586570000
H        -2.38228775700000    2.12161280960000    1.01962539290000
H        -2.43918075210000    0.71984182290000    2.09129538340000
H        -3.86202491140000    1.17356170040000    1.14877766230000
H         1.47103065720000   -2.96686828940000    0.51691322810000
H         3.61937521770000   -1.19693393250000   -0.76825492080000
H         3.76940935510000   -2.95507815950000   -0.28517503240000
