  24
        -46.37239325
 C         -3.7270598987       -2.7078607463        0.1084858095
 C         -3.6003308185       -1.3932990301       -0.0228602613
 C         -2.3527927078       -0.6368210798       -0.0275750253
 C         -2.4064972023        0.7562111074       -0.0528900924
 C         -1.2564411836        1.5383599922       -0.0491594808
 C         -1.3869794259        2.9915068409       -0.0632166178
 C         -0.4181178440        3.8740414673        0.1467642350
 C         -0.0094916874        0.9063212181       -0.0370471683
 C          0.0435229560       -0.4722307195       -0.0190864630
 O          1.2468449286       -1.2119305295       -0.0108202487
 C          2.4088451141       -0.6017783249       -0.0006701187
 F          2.6125269272        0.1981129839        1.0638525533
 F          3.3755814054       -1.5149949237        0.0233931651
 F          2.6438984245        0.1741520756       -1.0763314607
 C         -1.1021594454       -1.2493648675       -0.0117657991
 H         -4.6952621906       -3.1778978793        0.1040169152
 H         -2.8847546441       -3.3665235569        0.2296781077
 H         -4.4915167279       -0.7874741302       -0.1291932021
 H         -3.3711487905        1.2436024388       -0.0670508394
 H         -2.3922916032        3.3485155059       -0.2487283394
 H          0.5980402051        3.5898167321        0.3589768994
 H         -0.6136023666        4.9321618020        0.1225343526
 H          0.8852092112        1.5047846319       -0.0547039457
 H         -0.9939742941       -2.3201097349       -0.0036586636
