18
 energy: -26.954202225919 gnorm: 0.000049445440 xtb: 6.4.1 (23d549d)
C         3.60736752300000   -0.70337244100000   -0.00389898300000
C         2.79685383950000    0.34814940860000   -0.00584340720000
C         1.34562319040000    0.23779091270000   -0.00045317180000
C         0.52899284110000    1.38198758720000   -0.00432211170000
C        -0.83273852070000    1.20064187680000   -0.00059745700000
C        -1.31247102540000   -0.12016520600000    0.00618743220000
C        -2.72106704010000   -0.48753038290000    0.00813699360000
C        -3.74907643860000    0.35171904530000   -0.01924236860000
N        -0.46701283500000   -1.15179407260000    0.01240841280000
N         0.80954259360000   -0.98218541300000    0.00916726860000
H         4.67845189720000   -0.59707654810000   -0.00854900710000
H         3.20196412870000   -1.70034278840000    0.00217795050000
H         3.18713601810000    1.35813823560000   -0.01223483550000
H         0.96902288060000    2.36934910480000   -0.00938208120000
H        -1.50955882590000    2.04131690790000   -0.00144889500000
H        -2.88249503490000   -1.55641979900000    0.03158889760000
H        -3.63106798950000    1.42215730260000   -0.04614989980000
H        -4.76335120820000   -0.00836021580000   -0.01710625840000
