  26
        -36.03283890
 C          3.9478971692       -2.0725341325        0.1294859939
 C          3.7247923291       -0.7777890932       -0.0615235513
 C          2.4310163534       -0.1054549379       -0.0424607012
 C          2.4109109216        1.3096665487       -0.0534209690
 C          1.2364010164        2.0027061120       -0.0289843771
 C         -0.0000336425        1.3265264728       -0.0001296331
 C         -1.2364937931        2.0026811534        0.0283817092
 C         -2.4109801035        1.3096110302        0.0531854005
 C         -2.4309989409       -0.1055060654        0.0429002625
 C         -3.7247181419       -0.7779585841        0.0623602217
 C         -3.9478286872       -2.0724261917       -0.1307627596
 C         -1.2297189578       -0.7789592949        0.0208368183
 C          0.0000022108       -0.0936409628        0.0002649558
 C          1.2297416680       -0.7789220063       -0.0199546746
 H          4.9441659145       -2.4794446986        0.1005663505
 H          3.1578435882       -2.7764593063        0.3275515188
 H          4.5696164019       -0.1224213692       -0.2377981553
 H          3.3520912558        1.8412844882       -0.0763732090
 H          1.2371492006        3.0837936945       -0.0338978482
 H         -1.2372846099        3.0837705178        0.0327852344
 H         -3.3521894966        1.8411803627        0.0759869872
 H         -4.5694106260       -0.1229367035        0.2405900930
 H         -3.1578193342       -2.7758004815       -0.3312116902
 H         -4.9440477639       -2.4795077198       -0.1019332486
 H         -1.2092907801       -1.8586191666        0.0289925314
 H          1.2093025498       -1.8585806451       -0.0273880599
