  23
        -38.06172735
 C         -4.4821315260        0.3899390293        0.1243472653
 C         -3.3053366056        0.7134734183       -0.3921428756
 C         -2.0593572128       -0.0093424817       -0.1229290407
 C         -2.0863955396       -1.3958540300        0.0007622306
 C         -0.9261369540       -2.1065219345        0.2387213431
 C          0.2729816103       -1.4354028491        0.3672587144
 C          0.3256821124       -0.0459850238        0.2543561261
 C          1.6123168897        0.6300384373        0.4491597839
 C          2.7755102198        0.1896987154        0.0035918088
 F          2.9935914356       -0.8886226932       -0.7408641777
 F          3.9367500877        0.8055124755        0.2282793230
 C         -0.8430068013        0.6787090273       -0.0045339162
 C         -0.8297910582        2.1702390939       -0.1730931467
 H         -5.3750179349        0.9438907913       -0.1104835490
 H         -4.5971112770       -0.4275969334        0.8165574431
 H         -3.2327152920        1.5637027169       -1.0570801775
 H         -3.0251502267       -1.9161497853       -0.1140946682
 H         -0.9553647590       -3.1820476946        0.3264732623
 H          1.1773781404       -1.9864968173        0.5726801140
 H          1.6398336690        1.5445469360        1.0217639448
 H          0.1570048826        2.5916883432       -0.0161307474
 H         -1.5262797361        2.6364923779        0.5225940365
 H         -1.1416524735        2.4322830182       -1.1843134861
