18
 energy: -26.953587217081 gnorm: 0.000030820599 xtb: 6.4.1 (23d549d)
C         3.69191996060000    0.64817046600000   -0.02106299480000
C         2.78766453360000   -0.32318188760000    0.00672461740000
C         1.34225001340000   -0.15066066310000    0.00595491460000
C         0.68679158370000    1.09267157550000   -0.00361561620000
C        -0.68677929150000    1.09265838330000   -0.00549698380000
C        -1.34223400900000   -0.15068391350000    0.00268143910000
C        -2.78764594320000   -0.32329404070000    0.00011214590000
C        -3.69198678390000    0.64826409150000   -0.01376916120000
N        -0.64421052150000   -1.28639862920000    0.01448014240000
N         0.64423479390000   -1.28638899890000    0.01613946150000
H         4.74572581730000    0.42929668810000   -0.01946284840000
H         3.42948026100000    1.69267443000000   -0.04725394130000
H         3.09275342140000   -1.36024683260000    0.03020120740000
H         1.24424906150000    2.01686361850000   -0.00807720960000
H        -1.24422575120000    2.01684125670000   -0.01219927030000
H        -3.09266432540000   -1.36061031590000    0.01011700480000
H        -3.42964357660000    1.69304807010000   -0.02436151400000
H        -4.74577464320000    0.42929445930000   -0.01518899860000
