  24
        -32.88218674
 C         -2.8727283472       -0.0010744523        0.8040071033
 O         -2.1411728590       -0.0000908496       -0.4003765981
 C         -0.7598838985        0.0000163676       -0.2136072598
 C         -0.0709940441       -1.2120014754       -0.1381534222
 C         -0.8052165956       -2.5164370347       -0.2390204855
 C          1.3030782389       -1.1971214903        0.0312065514
 C          2.0076005577        0.0003110679        0.1221832736
 N          3.3876080191        0.0004145055        0.2190704155
 C          1.3028915510        1.1976072702        0.0306453793
 C         -0.0711808843        1.2121874299       -0.1386332369
 C         -0.8057640441        2.5163834786       -0.2398590725
 H         -3.9254624403       -0.0024274764        0.5242579456
 H         -2.6579544465        0.8891489356        1.4059717222
 H         -2.6556466331       -0.8907308495        1.4059608115
 H         -1.7622292171       -2.3705516845       -0.7333692899
 H         -0.9862731810       -2.9302168987        0.7541430720
 H         -0.2197075359       -3.2397631593       -0.8022072492
 H          1.8409115234       -2.1333929686        0.0871062278
 H          3.8050053095       -0.8455731452        0.5721189427
 H          3.8049509793        0.8466755772        0.5715164735
 H          1.8405979271        2.1339789012        0.0860901146
 H         -0.2190624216        3.2408289460       -0.8003791120
 H         -0.9899715159        2.9286569638        0.7533621454
 H         -1.7613220879        2.3705840090       -0.7370637881
