  24
        -37.21091888
 C          5.5725716121       -0.3233624552       -0.2844330691
 C          4.3545701478       -0.2576146985       -0.8182024803
 C          3.1256421085       -0.1837898369       -0.0767914286
 C          2.9085791394       -0.1668176474        1.2804962775
 C          1.5581080864       -0.0868523907        1.6314042580
 C          0.7116059361       -0.0407992894        0.5453226854
 C         -0.7114517740        0.0429187749        0.5453498965
 C         -1.5574403340        0.0968635646        1.6314820350
 C         -2.9080268755        0.1752633245        1.2806378285
 C         -3.1256787956        0.1831198914       -0.0766439930
 C         -4.3548308894        0.2530619128       -0.8180417546
 C         -5.5725100530        0.3248607491       -0.2844942244
 S         -1.6166191357        0.0913897591       -0.9362218981
 S          1.6161410346       -0.0985156001       -0.9362594409
 H          6.4508869179       -0.3763977295       -0.9028753127
 H          5.7332318278       -0.3262473111        0.7795936479
 H          4.2389606533       -0.2568836588       -1.8944437583
 H          3.7027931925       -0.2111875533        2.0034477866
 H          1.2087408779       -0.0632303016        2.6477053775
 H         -1.2076219642        0.0799706635        2.6477840889
 H         -3.7019342535        0.2248515401        2.0036201608
 H         -4.2396684215        0.2441851398       -1.8942121769
 H         -5.7328726634        0.3363030313        0.7795024769
 H         -6.4508734514        0.3744783315       -0.9031291285
