  21
        -39.41289993
 C         -4.7501802543       -1.1237476487        0.0445095333
 C         -3.5026724779       -1.4003140668       -0.3169880843
 C         -2.3446658477       -0.5271410135       -0.1747972040
 C         -2.4367939490        0.7940696877        0.2741624748
 C         -1.3124987634        1.5827517449        0.3722021691
 C         -0.0548402647        1.0708629766        0.0453496732
 C          1.0571766273        1.9420626114        0.0720623407
 N          1.9316923165        2.6833041593        0.0593812552
 C          0.0664385564       -0.2613248492       -0.3812392015
 C          1.3602152636       -0.8597461638       -0.7136959449
 C          2.4629926360       -0.7380827408        0.0066529978
 F          2.5900771087       -0.1022185475        1.1598647214
 F          3.6163428587       -1.3121365767       -0.3134142600
 C         -1.0849469448       -1.0268217090       -0.5046233231
 H         -5.5424860108       -1.8379710978       -0.0982761573
 H         -5.0358723879       -0.1899732552        0.4972874156
 H         -3.2856915336       -2.3659388476       -0.7567397960
 H         -3.3966317259        1.2118766648        0.5317823595
 H         -1.3901852248        2.6100919700        0.6964047723
 H          1.4141573594       -1.4868969681       -1.5907996655
 H         -0.9947036368       -2.0473063128       -0.8493033335
