  23
        -33.94654782
 C          4.0087315838       -0.4973086598       -0.0254698462
 C          3.0319216122        0.4015377067       -0.0377808763
 C          1.6183333845        0.0493138441       -0.0025288186
 C          0.6456751687        1.0518010203       -0.0106310089
 C         -0.6964108657        0.7016010156        0.0151245258
 O         -1.7225992213        1.5890847297        0.0021688145
 C         -1.4285934946        2.9646754260       -0.0248848891
 C         -1.0373099365       -0.6693819163        0.0483505387
 C         -2.4344635620       -1.0714883384        0.0814099044
 C         -2.9000630391       -2.2958755715       -0.1373679021
 C          0.0249435411       -1.5727034864        0.0682508247
 N          1.2971539636       -1.2433305361        0.0414783709
 H          5.0469538450       -0.2142231013       -0.0527152691
 H          3.7765549772       -1.5472962483        0.0126958545
 H          3.2507646929        1.4611105401       -0.0754824499
 H          0.9575767892        2.0840954741       -0.0389688125
 H         -2.3926541315        3.4709101530       -0.0231953975
 H         -0.8779742224        3.2397714148       -0.9300292124
 H         -0.8577554495        3.2711806436        0.8574320928
 H         -3.1250643330       -0.2660457327        0.2915666964
 H         -2.2604609753       -3.1276280629       -0.3780846166
 H         -3.9544967124       -2.5072861673       -0.0907426923
 H         -0.1692839080       -2.6352812146        0.1208828173
  23
        -33.94546230
 C          4.0977510562       -0.2808608772        0.0132768517
 C          3.0452045202        0.5280246898        0.0009687096
 C          1.6687933647        0.0502215601        0.0036767148
 C          0.6090383000        0.9581932579       -0.0107176379
 C         -0.7029723194        0.5012218856       -0.0084417725
 O         -1.7802818322        1.3228665804       -0.0224314801
 C         -1.5787925628        2.7160590320       -0.0407249873
 C         -0.9242713222       -0.8949791037        0.0088647130
 C         -2.2180377648       -1.5560433714        0.0138296543
 C         -3.4251469959       -1.0005607759        0.0090257551
 C          0.2215834481       -1.6964059262        0.0220575764
 N          1.4619049728       -1.2663223563        0.0199562912
 H          5.1070692904        0.0933701500        0.0107392087
 H          3.9591196005       -1.3478663622        0.0261760922
 H          3.1691827936        1.6034075048       -0.0120484730
 H          0.8308491659        2.0136225874       -0.0236357739
 H         -2.5752782930        3.1554742054       -0.0511038808
 H         -1.0363783576        3.0329747872       -0.9370085093
 H         -1.0441559295        3.0573975806        0.8512778760
 H         -2.1437005214       -2.6378530074        0.0232654802
 H         -3.5753253036        0.0623860575        0.0001931878
 H         -4.3108388851       -1.6143500702        0.0142541140
 H          0.1118221780       -2.7743450039        0.0358324805
  23
        -33.94473184
 C          3.7344458358        1.1418269337       -0.0420545250
 C          3.1295521048       -0.0384274785        0.0158969408
 C          1.6937256337       -0.2879201193        0.0189394872
 C          0.7331840738        0.7234630732       -0.0099605272
 C         -0.6179108761        0.4021114242       -0.0080371025
 O         -1.6044809854        1.3308892298       -0.0325802699
 C         -1.2610867471        2.6959701374       -0.0544897530
 C         -0.9851694370       -0.9631956173        0.0227805325
 C         -2.3409326098       -1.4853468550        0.0253387954
 C         -3.4828491590       -0.8075440303       -0.0227098879
 C          0.0704686190       -1.8786601896        0.0542218206
 N          1.3483937392       -1.5756439592        0.0530852034
 H          4.8081154179        1.2190195125       -0.0405166683
 H          3.1990090645        2.0750135525       -0.0944679875
 H          3.7139098844       -0.9470879213        0.0635559778
 H          1.0533144523        1.7512039018       -0.0323570024
 H         -2.2073375047        3.2350926079       -0.0667802251
 H         -0.6889284988        2.9531237116       -0.9514920232
 H         -0.6949305524        2.9832943919        0.8371192844
 H         -2.3803083205       -2.5680936093        0.0698155802
 H         -3.5203933798        0.2642588935       -0.0699836357
 H         -4.4279750950       -1.3251021400       -0.0163538374
 H         -0.1486023360       -2.9393728558        0.0818035261
  23
        -33.93958970
 C          4.0846666961       -0.7278000319        0.0767281659
 C          3.1898010549        0.2521233848        0.0620947913
 C          1.7519416905        0.0226661475       -0.0055252291
 C          0.8635612227        1.0895320583       -0.0172683839
 C         -0.5143752692        0.8691380398       -0.0760875380
 O         -1.2489501253        2.0087636847       -0.0170545196
 C         -2.6504033782        1.9908680546        0.1205027254
 C         -0.9670443866       -0.4574797601       -0.1503126770
 C         -2.3584519776       -0.8983985909       -0.2963362514
 C         -2.8868958910       -1.8924803401        0.4035656610
 C          0.0253931002       -1.4466660439       -0.1195017390
 N          1.3164000097       -1.2405972761       -0.0475650330
 H          5.1426809593       -0.5356265506        0.1264014886
 H          3.7643852116       -1.7545357513        0.0385969778
 H          3.4946899083        1.2896500377        0.0990933954
 H          1.2130039400        2.1087006676        0.0341078141
 H         -2.9167139623        2.9731651406        0.5125364483
 H         -2.9817456417        1.2190617461        0.8186574944
 H         -3.1442166632        1.8531274354       -0.8454495869
 H         -2.9455341597       -0.4116284728       -1.0636986328
 H         -2.3346492284       -2.3957118692        1.1796600007
 H         -3.8971700576       -2.2256785383        0.2385618712
 H         -0.2763672184       -2.4848371478       -0.1812289818
  23
        -33.93886701
 C          3.9979791978        0.7150953411        0.0794659390
 C          3.2004362336       -0.3452349375        0.0580576516
 C          1.7438513655       -0.3345834945       -0.0068025637
 C          0.9745924237        0.8207551659       -0.0234625889
 C         -0.4183576569        0.7466629099       -0.0806618605
 O         -1.0263772222        1.9593084795       -0.0273545715
 C         -2.4203964914        2.0927657484        0.1226868991
 C         -1.0137125351       -0.5231387842       -0.1490321560
 C         -2.4448264388       -0.8099212006       -0.2942175607
 C         -3.0785038326       -1.7381334800        0.4087732418
 C         -0.1346670448       -1.6130408284       -0.1129031539
 N          1.1714899981       -1.5431045576       -0.0414122993
 H          5.0681836523        0.6083744169        0.1263714025
 H          3.6257229210        1.7250454637        0.0505134662
 H          3.6155591748       -1.3434629789        0.0858454583
 H          1.4209327542        1.7999812675        0.0237424697
 H         -2.5758615569        3.0977005075        0.5170212898
 H         -2.8271704356        1.3607412492        0.8237257880
 H         -2.9346689090        2.0100944460       -0.8388738062
 H         -2.9749765290       -0.2639884992       -1.0632036708
 H         -2.5842843756       -2.2960428710        1.1866056573
 H         -4.1191861657       -1.9594380442        0.2448329009
 H         -0.5445930527       -2.6135939575       -0.1695393183
