  36
        -61.85254895
 F         -5.8128662161       -1.0843226576       -1.2967532970
 C         -4.9592598967       -0.3415886800       -0.5953444924
 F         -5.6471421383        0.5230640451        0.1392725676
 C         -3.6450489317       -0.4927320709       -0.6645397896
 C         -2.6102912220        0.2451085455        0.0439393911
 C         -1.2833894675       -0.1111444007       -0.1949257821
 C         -0.2414790480        0.5429929300        0.4498177368
 N          1.0825646811        0.1617017855        0.2040096531
 C          1.5719718496       -1.1302754368        0.2431483115
 C          2.9521793370       -1.1159126035       -0.0613865382
 C          3.6750073341       -2.3015449692       -0.0675073278
 C          3.0194224858       -3.4775122920        0.2374579104
 C          1.6647463121       -3.4786097419        0.5617929096
 C          0.9244776483       -2.3117570110        0.5742651232
 C          2.1225966103        1.0114634552       -0.1223830012
 C          3.3039323569        0.2560373615       -0.3003874671
 C          4.4878619835        0.8900575538       -0.6533125738
 C          4.4771951354        2.2588406893       -0.8320920043
 C          3.3025995510        2.9917946152       -0.6787607215
 C          2.1124129658        2.3833739153       -0.3280995100
 C         -0.5234763966        1.5765072212        1.3401710739
 C         -1.8375622673        1.9417330989        1.5683107347
 C         -2.8773395513        1.2864075208        0.9348234678
 H         -3.3086935319       -1.2691728860       -1.3366511580
 H         -1.0558734799       -0.8966611985       -0.9002405385
 H          4.7287619335       -2.2976069284       -0.3018334912
 H          3.5621922925       -4.4109549434        0.2359567004
 H          1.1824771283       -4.4117195661        0.8131840369
 H         -0.1200963071       -2.3217465747        0.8474345256
 H          5.3940179901        0.3190901039       -0.7883923518
 H          5.3874508814        2.7719547945       -1.1044150229
 H          3.3211379904        4.0593596047       -0.8412745169
 H          1.2040153567        2.9586592132       -0.2306063389
 H          0.2837838568        2.0732959625        1.8560387046
 H         -2.0554280746        2.7430063686        2.2582710263
 H         -3.8913614615        1.5877199605        1.1364669160
