  24
        -42.12839144
 C         -1.3361487837       -3.8220004817        0.3297588278
 C         -1.3105520534       -2.5783130781       -0.1314328343
 C         -0.1650059196       -1.6757029347       -0.0260877665
 C          1.1337554131       -2.1813156421       -0.0958078167
 C          2.2334862558       -1.3565759024       -0.0551711195
 C          2.0695413011        0.0261960934        0.0598318760
 O          3.2105909186        0.7621746603        0.0870888575
 C          3.1095428811        2.1644188459        0.1678204956
 C          0.7863978314        0.5480601118        0.1413048911
 C         -0.3303046329       -0.2860925594        0.0966980232
 C         -1.6711083295        0.2744528065        0.2372499677
 C         -2.0605389636        1.4961918666       -0.0898590219
 F         -1.3326984800        2.4629281914       -0.6414539871
 F         -3.3047869178        1.9416218981        0.0831146267
 H         -2.2017392937       -4.4504763390        0.2090992529
 H         -0.5036558301       -4.2542456318        0.8589367303
 H         -2.1825525336       -2.1828634912       -0.6359033014
 H          1.2748235464       -3.2449764388       -0.2106558349
 H          3.2342812802       -1.7530349480       -0.1171750942
 H          4.1329504336        2.5346160713        0.1363012706
 H          2.6404875034        2.4800920400        1.1051896572
 H          2.5485543747        2.5762740507       -0.6767009275
 H          0.6397351552        1.6079347951        0.2618189435
 H         -2.4378856050       -0.3619099477        0.6521247327
