  24
        -33.66455159
 C          0.4918466785        3.8116607571       -0.0329993897
 C          1.1039529725        2.6397438911        0.0843202185
 C          0.4805106299        1.3209431178        0.0665682497
 C         -0.8955196691        1.1313756177       -0.0238933559
 C         -1.4585197672       -0.1427006109       -0.0332314608
 C         -2.9099241295       -0.2660070077       -0.1225062107
 C         -3.6213993740       -1.3798302339       -0.0017408998
 C         -0.6112501327       -1.2486019022        0.0344728317
 C          0.7614988407       -1.0837826966        0.1245851155
 C          1.6698868645       -2.2875702267        0.2073011440
 O          2.9566022492       -2.0689916001       -0.3199142406
 C          1.2987487623        0.1938856326        0.1451722992
 H          1.0441523096        4.7354180699       -0.0085153781
 H         -0.5731207077        3.9058419572       -0.1586126997
 H          2.1806610755        2.6223525711        0.2037981704
 H         -1.5507979925        1.9873131527       -0.0811452851
 H         -3.4292315178        0.6693966577       -0.2936261355
 H         -3.1744783406       -2.3414398731        0.1836708637
 H         -4.6951129698       -1.3686676343       -0.0790647448
 H         -1.0204915045       -2.2470696355        0.0122836474
 H          1.1903098525       -3.1463247309       -0.2868387718
 H          1.8310464952       -2.5517432873        1.2583087854
 H          2.8685065178       -1.7777783829       -1.2344675415
 H          2.3706737731        0.3100499482        0.2231959609
