  32
        -43.98154329
 C          5.0413581554       -0.3997735977        0.1183598505
 C          3.5435052167       -0.3452550105        0.0740964528
 C          2.7884883284       -1.3603740051        0.6522059043
 C          1.4089840440       -1.3074262969        0.6138719773
 C          0.7389933653       -0.2473783366        0.0156545418
 C         -0.7389958950       -0.2473893551       -0.0157147210
 C         -1.4089944898       -1.3074536450       -0.6138912351
 C         -2.7885042232       -1.3604300489       -0.6521435491
 C         -3.5435165760       -0.3453375379       -0.0740027104
 C         -5.0413698420       -0.3996507300       -0.1184543928
 C         -2.8857316443        0.7053879314        0.5398664630
 C         -1.4932662074        0.7751057488        0.5821765556
 N         -0.8770642211        1.8641005189        1.1657706111
 C          1.4932601957        0.7751571465       -0.5821885431
 N          0.8771102079        1.8640587460       -1.1658052412
 C          2.8857405767        0.7054484257       -0.5398081058
 H          5.4003951248       -1.3431996262       -0.2906373534
 H          5.3909048568       -0.3303543254        1.1483315710
 H          5.4796580415        0.4165614010       -0.4504160701
 H          3.2851255184       -2.1923692936        1.1294977917
 H          0.8259421235       -2.0983329205        1.0645319664
 H         -0.8259638944       -2.0983259330       -1.0646243054
 H         -3.2851383509       -2.1924353843       -1.1294243575
 H         -5.4004502918       -1.3453216073        0.2852235823
 H         -5.3909016239       -0.3244088626       -1.1480434806
 H         -5.4796461973        0.4135729507        0.4547826577
 H         -3.4560636630        1.4970700843        1.0075888058
 H         -1.4232619771        2.3749400807        1.8396733063
 H          0.0935561831        1.7448118829        1.4067286733
 H         -0.0936300315        1.7452409205       -1.4063894058
 H          1.4233394771        2.3754536945       -1.8392212097
 H          3.4560795017        1.4971668106       -1.0074604066
  32
        -43.98093188
 C          5.0420575928        0.1920003957        0.1873428501
 C          3.5437000493        0.1696915752        0.1358306953
 C          2.7925436325        0.7408177957        1.1562420983
 C          1.4120174203        0.7287877049        1.0938978356
 C          0.7382772228        0.1590565276        0.0200446264
 C         -0.7382767850        0.1590651402       -0.0200806919
 C         -1.4120154654        0.7284828138       -1.0941021134
 C         -2.7925422152        0.7404238863       -1.1564970257
 C         -3.5437043978        0.1696185810       -0.1359190789
 C         -5.0420624875        0.1919561612       -0.1873653867
 C         -2.8815195693       -0.4045109553        0.9356970530
 C         -1.4902827652       -0.4161062592        1.0183989092
 N         -0.8745378115       -0.9542400266        2.1319859450
 C          1.4902790510       -0.4164038722       -1.0182750552
 N          0.8745416314       -0.9548969937       -2.1316187994
 C          2.8815197211       -0.4047951762       -0.9355887774
 H          5.3955499108        0.0541129162        1.2072206112
 H          5.4120829702        1.1544953449       -0.1676475549
 H          5.4666361591       -0.5866741940       -0.4421587557
 H          3.2903556387        1.1952875091        2.0002650530
 H          0.8331118801        1.1817523082        1.8858277029
 H         -0.8331247262        1.1811518277       -1.8862112124
 H         -3.2903377763        1.1945826783       -2.0006961913
 H         -5.3955907506        0.0550195218       -1.2073530105
 H         -5.4121008079        1.1541007862        0.1685753557
 H         -5.4665982679       -0.5873122036        0.4414303275
 H         -3.4507278668       -0.8573874103        1.7368134302
 H         -1.4203122698       -1.6121581464        2.6642108255
 H          0.0987755510       -1.1939349603        2.0251878845
 H         -0.0988330572       -1.1943714336       -2.0251526789
 H          1.4204488466       -1.6122166554       -2.6643989518
 H          3.4507186793       -0.8579502700       -1.7365573903
  32
        -43.98070295
 C          5.0391465794       -0.2798284976        0.1546782130
 C          3.5405664937       -0.2305548700        0.1258404939
 C          2.7887093200       -0.8943065968        1.0866658127
 C          1.4066394018       -0.8628512433        1.0305290299
 C          0.7402004435       -0.1750731772        0.0268217931
 C         -0.7401231515       -0.1751196473       -0.0261302125
 C         -1.4062219095       -0.8629761043       -1.0300125799
 C         -2.7882614273       -0.8944919594       -1.0866163933
 C         -3.5404473644       -0.2304889973       -0.1262286549
 C         -5.0390244116       -0.2793473134       -0.1558942009
 C         -2.8823500578        0.4603382160        0.8782208718
 C         -1.4914765070        0.5056762503        0.9445895940
 N         -0.8642893261        1.2788632494        1.8983744775
 C          1.4912267777        0.5056413847       -0.9442188880
 N          0.8636930948        1.2785571220       -1.8980255261
 C          2.8821194029        0.4601741139       -0.8784391932
 H          5.4018781164       -0.4470189253        1.1662095180
 H          5.4655583924        0.6461214289       -0.2250353745
 H          5.3980699558       -1.0973826666       -0.4718619111
 H          3.2837333451       -1.4409155560        1.8759889699
 H          0.8260817263       -1.3971530138        1.7710708033
 H         -0.8253961015       -1.3981426734       -1.7697325626
 H         -3.2829862910       -1.4416371522       -1.8757634364
 H         -5.4011957487       -0.4476680067       -1.1674448421
 H         -5.4653821298        0.6472146415        0.2224147294
 H         -5.3985659651       -1.0960166367        0.4714459151
 H         -3.4557165521        0.9843982665        1.6311852743
 H         -1.3921690931        1.4877227931        2.7292792945
 H          0.1150414108        1.0913565596        2.0433836285
 H         -0.1156312198        1.0908914843       -2.0426463389
 H          1.3913731752        1.4871506480       -2.7291098102
 H          3.4552081728        0.9837890739       -1.6319175893
