  25
        -42.11096249
 C         -2.6667356263       -3.2372612924       -0.0184930273
 C         -2.9617541267       -1.9437877530       -0.0912255018
 C         -1.9563513535       -0.9143327296       -0.0361376783
 N         -0.6712811004       -1.0663104662        0.0811922087
 C         -0.1413529419        0.1903533417        0.0882710388
 C          1.3123960229        0.3712838248        0.2091515474
 O          1.8883645977        1.4360394886        0.2113193496
 O          1.9252911822       -0.8032783284        0.3296164260
 C          3.3464189578       -0.7825271112        0.4393113957
 C          4.0087682283       -0.6800425791       -0.9279372685
 C         -1.1823173212        1.1074101466       -0.0320272078
 C         -1.3275093111        2.5374481581       -0.0883602012
 C         -0.3441353232        3.4310399056       -0.0316258503
 O         -2.3242617642        0.3850159388       -0.1092203054
 H         -3.4297903155       -3.9941644972       -0.0605408218
 H         -1.6446406330       -3.5566260773        0.0857792811
 H         -3.9760269444       -1.5853126818       -0.1953636654
 H          3.6045370854       -1.7222859300        0.9316003380
 H          3.6448806171        0.0641532495        1.0672619990
 H          3.6712393142       -1.4910207140       -1.5685966661
 H          5.0877682432       -0.7382634010       -0.8164135626
 H          3.7532353912        0.2685677257       -1.3937564394
 H         -2.3597577311        2.8505574707       -0.1864525981
 H          0.6845430101        3.1334887390        0.0652628764
 H         -0.5580296922        4.4847522577       -0.0819413367
