  26
        -36.03326160
 C         -4.6157044461        1.2047282966        0.0758750603
 C         -4.0032592159        0.0303527308       -0.0216303779
 C         -2.5654687251       -0.2071372795       -0.0174147990
 C         -2.1075722676       -1.5462592514       -0.0044053830
 C         -0.7769008845       -1.8426536280        0.0049717565
 C          0.1924031697       -0.8162216808       -0.0018908584
 C          1.5718533909       -1.0827909937        0.0076811706
 C          2.5088629811       -0.0706318323        0.0001453854
 C          3.9241373631       -0.4138518787        0.0144682185
 C          4.9504198519        0.4290199522        0.0334041457
 C          2.0515922511        1.2683777865       -0.0213387843
 C          0.7199399906        1.5579648322       -0.0320835512
 C         -0.2518860608        0.5322566756       -0.0210321499
 C         -1.6295560996        0.8053567817       -0.0286616766
 H         -5.6896928195        1.2781204405        0.0656890285
 H         -4.0821754305        2.1345955551        0.1733297105
 H         -4.6060337758       -0.8663227621       -0.1055149390
 H         -2.8383633966       -2.3431537897        0.0013986712
 H         -0.4441589897       -2.8711444659        0.0169954129
 H          1.8958885059       -2.1149933989        0.0227588707
 H          4.1246037031       -1.4788798556        0.0115851279
 H          4.8305854620        1.4987305879        0.0401209125
 H          5.9660055355        0.0717642173        0.0439262615
 H          2.7714475398        2.0719253376       -0.0307062949
 H          0.3853927086        2.5859534936       -0.0488965165
 H         -1.9424235997        1.8386831900       -0.0487345138
  26
        -36.03303392
 C         -4.6754901151        0.9916864397       -0.1020768783
 C         -3.9758808471       -0.1313591107        0.0119396935
 C         -2.5241722321       -0.2584725786        0.0139966208
 C         -1.9651049414       -1.5589602362        0.0081089642
 C         -0.6159313883       -1.7527246766        0.0059487848
 C          0.2734795009       -0.6556103169        0.0135817615
 C          1.6683702073       -0.8225510978        0.0122318930
 C          2.5241598221        0.2580742928        0.0228566881
 C          3.9758778907        0.1309070375        0.0204295404
 C          4.6754648579       -0.9891529001       -0.1198102837
 C          1.9651075075        1.5584358528        0.0418787528
 C          0.6159342254        1.7522074535        0.0413979547
 C         -0.2734586867        0.6551525032        0.0260412747
 C         -1.6683425167        0.8221221738        0.0258662177
 H         -5.7519722249        0.9833778561       -0.0951503784
 H         -4.2137034663        1.9580232552       -0.2107428863
 H         -4.5088882067       -1.0702973770        0.1055374215
 H         -2.6329162809       -2.4093371521        0.0022217053
 H         -0.2059617832       -2.7530256315       -0.0006451227
 H          2.0590976767       -1.8292450306        0.0089422007
 H          4.5088165212        1.0672017522        0.1376134122
 H          4.2135750275       -1.9523262329       -0.2530857698
 H          5.7519358864       -0.9813512388       -0.1107999044
 H          2.6329267128        2.4087398172        0.0538356253
 H          0.2059414295        2.7524427525        0.0539246377
 H         -2.0590096003        1.8287188111        0.0415189045
