  22
        -34.58379974
 C          3.6897118770        1.0375667174        0.0429831923
 C          2.8717071554       -0.0086334370        0.0037202898
 C          1.4180405924        0.0192908973       -0.0029584835
 C          0.6733601253        1.1968810611       -0.0034299002
 C         -0.7096763088        1.1952052891       -0.0112029346
 O         -1.4139463224        2.3650910686       -0.0112331749
 C         -1.4180733069       -0.0194684862       -0.0159858776
 C         -2.8718062512        0.0077951306       -0.0241294760
 C         -3.6887475945       -1.0358166507        0.0681331941
 C         -0.6735493042       -1.1970520338       -0.0186884924
 C          0.7095434477       -1.1953875907       -0.0128661982
 O          1.4134589020       -2.3654865578       -0.0171130512
 H          4.7580986321        0.9076116668        0.0450507257
 H          3.3429995780        2.0564477327        0.0763835722
 H          3.2897403755       -1.0052841970       -0.0241271638
 H          1.1918306065        2.1454722520        0.0000984268
 H         -0.7983926058        3.1073593995       -0.0082979617
 H         -3.2902556683        1.0012419615       -0.1068355971
 H         -3.3403886893       -2.0499655316        0.1663659379
 H         -4.7573152702       -0.9082041899        0.0535044169
 H         -1.1923031055       -2.1454506915       -0.0313146302
 H          0.7976407099       -3.1074895040       -0.0256372131
