22
 energy: -34.583799736405 gnorm: 0.000053188989 xtb: 6.4.1 (23d549d)
C         3.68971187700000    1.03756671740000    0.04298319230000
C         2.87170715540000   -0.00863343700000    0.00372028980000
C         1.41804059240000    0.01929089730000   -0.00295848350000
C         0.67336012530000    1.19688106110000   -0.00342990020000
C        -0.70967630880000    1.19520528910000   -0.01120293460000
O        -1.41394632240000    2.36509106860000   -0.01123317490000
C        -1.41807330690000   -0.01946848620000   -0.01598587760000
C        -2.87180625120000    0.00779513060000   -0.02412947600000
C        -3.68874759450000   -1.03581665070000    0.06813319410000
C        -0.67354930420000   -1.19705203380000   -0.01868849240000
C         0.70954344770000   -1.19538759070000   -0.01286619820000
O         1.41345890200000   -2.36548655780000   -0.01711305120000
H         4.75809863210000    0.90761166680000    0.04505072570000
H         3.34299957800000    2.05644773270000    0.07638357220000
H         3.28974037550000   -1.00528419700000   -0.02412716380000
H         1.19183060650000    2.14547225200000    0.00009842680000
H        -0.79839260580000    3.10735939950000   -0.00829796170000
H        -3.29025566830000    1.00124196150000   -0.10683559710000
H        -3.34038868930000   -2.04996553160000    0.16636593790000
H        -4.75731527020000   -0.90820418990000    0.05350441690000
H        -1.19230310550000   -2.14545069150000   -0.03131463020000
H         0.79764070990000   -3.10748950400000   -0.02563721310000
