  41
        -58.14169204
 C          4.0671863914       -3.0361811214       -0.5951367430
 C          4.2515330101       -1.7337829175       -0.4206068142
 C          3.2281135927       -0.7399437536       -0.1089753237
 C          3.5473800617        0.6091915667       -0.2404452229
 C          2.6061886645        1.5899744580        0.0514501130
 C          2.8881821652        3.0167350436       -0.0706994761
 C          3.9901954048        3.5718471409       -0.5594795378
 C          1.3350584870        1.2041686053        0.4742807960
 C          0.9824833543       -0.1392209839        0.6146148016
 N         -0.2540594838       -0.5432329489        1.1085547671
 C         -0.9396272357       -1.6601845416        0.4968456061
 C         -1.7817994856       -1.2037364708       -0.7009852670
 C         -2.8003250483       -0.1434203086       -0.2591312678
 C         -2.0736022980        1.0045870837        0.4550367141
 C         -1.2074068115        0.4322834514        1.5828730229
 O         -3.7582009192       -0.7546093182        0.5947069410
 C         -5.0434294350       -0.3874167463        0.1516628295
 C         -4.8247188340       -0.1144044243       -1.3374493322
 O         -3.5076724713        0.3847391712       -1.3720532076
 C          1.9573876898       -1.0979989276        0.3266214953
 H          4.8877928655       -3.6920981649       -0.8311868079
 H          3.1001498614       -3.5035405775       -0.5196592184
 H          5.2497145794       -1.3281233242       -0.5349954991
 H          4.5368796247        0.8860038635       -0.5687201867
 H          2.0904967178        3.6635441256        0.2762020499
 H          4.8189228883        2.9945002694       -0.9313929827
 H          4.1037548998        4.6414463947       -0.6090258836
 H          0.6201328615        1.9837329434        0.6853702813
 H         -1.6030988550       -2.1042570375        1.2452757701
 H         -0.2272041255       -2.4147965533        0.1697595664
 H         -2.3139234034       -2.0525976145       -1.1317297716
 H         -1.1415229178       -0.7618682471       -1.4660455499
 H         -2.8106748282        1.7009349448        0.8569446833
 H         -1.4669627172        1.5247102524       -0.2862368889
 H         -1.8676266853       -0.0816367295        2.2901996715
 H         -0.6880029585        1.2257876842        2.1206621313
 H         -5.3857459714        0.5185721924        0.6708215568
 H         -5.7272503968       -1.2113123861        0.3552932798
 H         -5.4912948750        0.6417221108       -1.7515080877
 H         -4.9009000750       -1.0408215602       -1.9231687236
 H          1.7384815989       -2.1418045035        0.4799238582
