  22
        -32.36090453
 C         -4.3067885540        0.0054048275        0.0009471615
 C         -2.8096161593        0.0074287692        0.0048506391
 C         -2.0858076528        0.8648600473        0.8211959775
 C         -0.7037914124        0.8621097644        0.8198446806
 C          0.0020491366       -0.0082487485       -0.0072522815
 N          1.4036641462       -0.0146713714       -0.0125762620
 C          2.2420379489        0.7640746437        0.7326367591
 N          3.4953803113        0.5172149197        0.4967593295
 C          3.5055042751       -0.4658031807       -0.4437483912
 C          2.2299859601       -0.8088890718       -0.7722254384
 C         -0.7206913274       -0.8718290317       -0.8288977414
 C         -2.1009195111       -0.8593696164       -0.8185644631
 H         -4.6993908437        0.7407043651        0.6982743258
 H         -4.6851426762       -0.9770135220        0.2808278007
 H         -4.6834105966        0.2340834895       -0.9952867605
 H         -2.6079189008        1.5504466550        1.4727463928
 H         -0.1813387500        1.5450426680        1.4695530549
 H          1.9102220990        1.4990580645        1.4360628483
 H          4.4272789272       -0.8604003149       -0.8211204248
 H          1.8712849498       -1.5361602572       -1.4683891038
 H         -0.2120846780       -1.5609778893       -1.4832933757
 H         -2.6394201939       -1.5378735237       -1.4643092314
