  46
        -76.74200919
 F          2.1894380515        5.5593340284       -0.5050921288
 C          2.0777936760        4.2329406418       -0.4149681890
 F          0.7911553068        3.9072633802       -0.4963126655
 C          3.1202297874        3.4273554775       -0.2742608534
 C          3.1393996388        1.9779284689       -0.1686027366
 C          4.3959022735        1.3472923912       -0.1305899875
 C          4.5184863666       -0.0192545469       -0.0192950403
 C          1.9761601006        1.2145530806       -0.1004119994
 C          2.0985570285       -0.1615834704       -0.0109511856
 C          3.3651787106       -0.7915724855        0.0450726244
 C          3.1165903980       -2.1966924035        0.1799349111
 C          3.9431876775       -3.3103319219        0.2671247837
 C          3.3620708070       -4.5575129032        0.3694178691
 C          1.9759069080       -4.7046632273        0.3710252966
 C          1.1332404232       -3.6135003307        0.2857626786
 C          1.7107747320       -2.3540185404        0.2057790151
 N          1.1100294701       -1.1173059971        0.0893153733
 C         -0.2720295725       -0.8724999443        0.0805551780
 C         -0.8427706256       -0.1015594052       -0.9276154873
 C         -2.2020740402        0.1383672111       -0.9296660798
 C         -3.0231600993       -0.3855416275        0.0666603107
 C         -4.4709681387       -0.1304593745        0.0591860705
 C         -5.1947545225       -0.1838637448       -1.1297837903
 C         -6.5568841481        0.0516929290       -1.1351749992
 C         -7.2168380174        0.3507215756        0.0450089372
 C         -6.5063016885        0.4100698907        1.2321786290
 C         -5.1452491296        0.1683826103        1.2408562284
 C         -2.4416063570       -1.1574826675        1.0703390799
 C         -1.0825432774       -1.3986597967        1.0819027690
 H          4.0786443132        3.9254485346       -0.2439092283
 H          5.2842664913        1.9587461886       -0.1853399216
 H          5.4914490199       -0.4846169267        0.0213178121
 H          1.0028967809        1.6756522525       -0.1008020413
 H          5.0165318971       -3.1963444658        0.2505850018
 H          3.9854317687       -5.4362717929        0.4405454890
 H          1.5509634420       -5.6953827554        0.4366489419
 H          0.0612052624       -3.7392265080        0.2703176488
 H         -0.2180573174        0.2982491016       -1.7122339962
 H         -2.6323105715        0.7522824165       -1.7067757640
 H         -4.6879069023       -0.4328260292       -2.0508725249
 H         -7.1068915412        0.0002606975       -2.0636152728
 H         -8.2805464169        0.5371304444        0.0395161021
 H         -7.0151656099        0.6478302602        2.1550443258
 H         -4.5930176706        0.2332138971        2.1671821195
 H         -3.0641913156       -1.5826359821        1.8437376175
 H         -0.6390550363       -1.9854800852        1.8726377046
