  20
        -27.55253035
 C          3.7884816663       -0.0444621902       -0.0006727118
 C          2.6732994243        0.6823917999        0.0001858486
 C          1.3361505519        0.1540967472        0.0003526243
 C          0.8982655447       -1.1466409558        0.0004192140
 C         -0.5003051866       -1.2818039725        0.0001586265
 C         -1.1968173702       -2.6049013448        0.0000615907
 C         -1.1504994634       -0.0641428959       -0.0000780136
 C         -2.5675835094        0.1677015105       -0.0006078759
 C         -3.1453199090        1.3665805616        0.0000480061
 S         -0.0117598723        1.2498143334        0.0001039848
 H          4.7583698004        0.4204338512       -0.0007770801
 H          3.7718329658       -1.1204598014       -0.0013089354
 H          2.7361088864        1.7630340476        0.0006886064
 H          1.5659545079       -1.9897472205        0.0006272117
 H         -0.4672303616       -3.4104791579        0.0016205608
 H         -1.8265881709       -2.7095483849       -0.8829148068
 H         -1.8291295073       -2.7083655843        0.8813427059
 H         -3.1764428163       -0.7269684193       -0.0016244016
 H         -2.5606842778        2.2717587839        0.0010201661
 H         -4.2149054479        1.4791228564       -0.0004003887
  20
        -27.55109872
 C          3.5486970173        1.0317082257        0.0017252802
 C          2.8635800314       -0.1085610600       -0.0024878938
 C          1.4309901220       -0.2096630930       -0.0014105539
 C          0.6817971529       -1.3588877520       -0.0024674853
 C         -0.7102519262       -1.1541793409       -0.0007583606
 C         -1.6758325031       -2.2935477963        0.0001508161
 C         -1.0401091596        0.1863653591        0.0012915712
 C         -2.2988125487        0.8820889068        0.0034520133
 C         -3.5263787528        0.3656837145       -0.0045859074
 S          0.3941538631        1.1797066091        0.0021625193
 H          4.6240139393        1.0466073400        0.0008484020
 H          3.0477673157        1.9858162451        0.0057060076
 H          3.3816004227       -1.0596536375       -0.0069539289
 H          1.1286181880       -2.3387098989       -0.0042708692
 H         -1.1341681756       -3.2365413729        0.0066010118
 H         -2.3077582930       -2.2637284033       -0.8868083458
 H         -2.3154449474       -2.2556181963        0.8812175548
 H         -2.1926537988        1.9606868599        0.0120296560
 H         -3.7264783776       -0.6886094385       -0.0145815122
 H         -4.3875644575        1.0116406355       -0.0019119244
  20
        -27.54985553
 C          3.8152173626       -0.3190604495        0.0478539123
 C          2.7932302936        0.5323959858        0.0012631442
 C          1.4034647057        0.1631421503       -0.0051630133
 C          0.8156768794       -1.0764037269        0.0232148654
 C         -0.5906059922       -1.0580211480        0.0096416301
 C         -1.3961984371       -2.3156826499        0.0164412780
 C         -1.1002606819        0.2251342695       -0.0281308165
 C         -2.4434915677        0.7391144971       -0.0553996128
 C         -3.5821264408        0.0689581404        0.1108228238
 S          0.1876172687        1.3985735851       -0.0564553837
 H          4.8328373647        0.0291433617        0.0494147586
 H          3.6723926533       -1.3849773050        0.0858476226
 H          2.9821240150        1.5976410677       -0.0351398283
 H          1.3823788741       -1.9902962352        0.0512968144
 H         -0.7411448723       -3.1744951501       -0.1103207625
 H         -2.1254583902       -2.3098510558       -0.7921566863
 H         -1.9285347688       -2.4273418830        0.9609251883
 H         -2.4924662991        1.8090888157       -0.2209091313
 H         -3.6254018230       -0.9859756359        0.3036420031
 H         -4.5271673345        0.5825255625        0.0666649079
