  17
        -24.05359697
 C          2.5578409830        0.1791491680       -0.0000275112
 C          1.1163756758       -0.1772447877        0.0000104688
 N          0.6726743755       -1.4499822085        0.0000202093
 N         -0.6069009048       -1.4567525407        0.0000008155
 N         -1.0439681474       -0.1998635865        0.0000108850
 C         -2.4467388589        0.0893205072       -0.0000285253
 C          0.0089072387        0.6568745892        0.0000113802
 C         -0.0959663016        2.1359892997        0.0000155157
 H          3.1496406615       -0.7311582013        0.0009363139
 H          2.8054851008        0.7689292791        0.8821859323
 H          2.8058570545        0.7672281497       -0.8832785575
 H         -2.9708941809       -0.8642622045        0.0005280329
 H         -2.7250993422        0.6555591049       -0.8910836495
 H         -2.7249441087        0.6565362110        0.8904470393
 H         -1.1342003253        2.4575623394        0.0000767757
 H          0.3988608060        2.5462306271       -0.8802362168
 H          0.3989751836        2.5462327326        0.8802033920
