  23
        -38.06469218
 C         -4.7334794351       -1.0207706131       -0.0555493207
 C         -3.8327519297       -0.0670891500       -0.2611227353
 C         -2.4070667649       -0.1405090823        0.0303100968
 C         -1.8179039327       -1.2145435900        0.7003049730
 C         -0.4628934563       -1.2226905260        0.9397057260
 C          0.3616860428       -0.1816683625        0.5072658507
 C          1.7927813257       -0.3044426070        0.7927557472
 C          2.7909298832       -0.0806224115       -0.0433922933
 F          2.7111637116        0.2938538402       -1.3147015322
 F          4.0751058545       -0.2378634590        0.2811271346
 C         -0.2143972868        0.9207676726       -0.1343383106
 C          0.5845484186        2.1173587432       -0.5499265784
 C         -1.5835432693        0.9144712559       -0.3572276860
 H         -5.7695820878       -0.8750933746       -0.3086694986
 H         -4.4828346290       -1.9798590555        0.3640237325
 H         -4.1539313537        0.8705983436       -0.6986505055
 H         -2.4215783641       -2.0396036656        1.0433126811
 H         -0.0163129406       -2.0590700061        1.4581907296
 H          2.0683478377       -0.6767963532        1.7692503542
 H          1.4214011512        2.2865095149        0.1244028478
 H         -0.0440333095        3.0048817963       -0.5573206027
 H          0.9825390355        1.9797509289       -1.5547202327
 H         -2.0283410426        1.7668974840       -0.8524620680
