  20
        -39.11978629
 C         -3.0365692177       -1.7079978276       -0.7300994529
 C         -3.0784077888       -0.4944553732       -0.1946995327
 C         -1.9437903864        0.3869700965        0.0665904028
 C         -2.1728834775        1.7579820429        0.2020844687
 C         -1.1415319042        2.6415654375        0.4546514822
 C          0.1546787685        2.1791844118        0.5760745749
 C          0.4351783762        0.8207775564        0.4394606612
 C          1.8156455313        0.3570364757        0.5703452703
 C          2.3876910065       -0.5939617074       -0.1502439231
 F          1.8546731501       -1.2774500596       -1.1482647814
 F          3.6557208199       -0.9644877325        0.0081217401
 C         -0.6261147634       -0.0520055232        0.2047937426
 F         -0.3588856649       -1.3724836877        0.1845161090
 H         -3.9410663458       -2.2683584673       -0.8959908677
 H         -2.1214028376       -2.1863289848       -1.0296516050
 H         -4.0375977024       -0.0580992695        0.0566253635
 H         -3.1837332712        2.1254833140        0.1061551881
 H         -1.3487136137        3.6953206974        0.5610009389
 H          0.9648352385        2.8651961545        0.7699031531
 H          2.4384871690        0.8558885665        1.2971843879
