20
 energy: -39.119786295009 gnorm: 0.000067512929 xtb: 6.4.1 (23d549d)
C        -3.03656921770000   -1.70799782760000   -0.73009945290000
C        -3.07840778880000   -0.49445537320000   -0.19469953270000
C        -1.94379038640000    0.38697009650000    0.06659040280000
C        -2.17288347750000    1.75798204290000    0.20208446870000
C        -1.14153190420000    2.64156543750000    0.45465148220000
C         0.15467876850000    2.17918441180000    0.57607457490000
C         0.43517837620000    0.82077755640000    0.43946066120000
C         1.81564553130000    0.35703647570000    0.57034527030000
C         2.38769100650000   -0.59396170740000   -0.15024392310000
F         1.85467315010000   -1.27745005960000   -1.14826478140000
F         3.65572081990000   -0.96448773250000    0.00812174010000
C        -0.62611476340000   -0.05200552320000    0.20479374260000
F        -0.35888566490000   -1.37248368770000    0.18451610900000
H        -3.94106634580000   -2.26835846730000   -0.89599086770000
H        -2.12140283760000   -2.18632898480000   -1.02965160500000
H        -4.03759770240000   -0.05809926950000    0.05662536350000
H        -3.18373327120000    2.12548331400000    0.10615518810000
H        -1.34871361370000    3.69532069740000    0.56100093890000
H         0.96483523850000    2.86519615450000    0.76990315310000
H         2.43848716900000    0.85588856650000    1.29718438790000
