34
 energy: -52.773957566073 gnorm: 0.000045774873 xtb: 6.4.1 (23d549d)
C        -5.08801632770000    1.89249037300000   -0.79783800310000
C        -4.11631549010000    1.05252068320000   -1.13637425420000
C        -2.89151779190000    0.76365335760000   -0.40346221910000
C        -2.02421793860000   -0.20628551630000   -0.90128351400000
C        -0.82204952470000   -0.57859486810000   -0.30568474060000
C        -0.01478148900000   -1.58470153200000   -1.01385274590000
C        -0.50888031250000   -2.72292213540000   -1.47770612990000
C        -0.46252358990000    0.05029185990000    0.89608261510000
O         0.60720403640000   -0.19209443090000    1.69852127130000
C         1.54613716920000   -1.20908314110000    1.43640199010000
C         2.65039660570000   -0.80661027490000    0.48673213410000
C         3.49974517050000   -1.78122876180000   -0.02519980700000
C         4.52296170470000   -1.43202166280000   -0.88664483810000
C         4.70643116480000   -0.10663158250000   -1.24701247540000
C         3.86568672660000    0.86685395950000   -0.73749181040000
C         2.84351685260000    0.51975108410000    0.12950617680000
C        -1.30830201020000    1.03507996940000    1.41208532180000
C        -2.47834726820000    1.38193799650000    0.77969169310000
F        -3.21748187350000    2.35290967710000    1.35717873440000
H        -5.95151350440000    2.01522801020000   -1.42984798020000
H        -5.07287398260000    2.48241429130000    0.10007735500000
H        -4.20954040150000    0.48967106880000   -2.05786259800000
H        -2.28758626000000   -0.69536832390000   -1.82807803350000
H         1.02054631270000   -1.33038373320000   -1.19917299770000
H        -1.53276891690000   -3.01075545550000   -1.30382638070000
H         0.09852893530000   -3.41794304240000   -2.03175265790000
H         1.04896136530000   -2.12000542620000    1.08023931600000
H         1.98910640000000   -1.42429963680000    2.41771116100000
H         3.35055848840000   -2.81531419380000    0.25162763200000
H         5.17719508040000   -2.19562188580000   -1.28067943060000
H         5.50338786710000    0.16454292960000   -1.92318240790000
H         4.00452822670000    1.90165470100000   -1.01332923260000
H         2.18883813010000    1.27961280250000    0.52978852370000
H        -1.03140148170000    1.52248438530000    2.33316732220000
