  22
        -29.45255484
 C          3.1953277385       -0.0580728666        0.0005744952
 O          1.9589351674       -0.7231067742       -0.0001480940
 C          0.8108363127        0.0249845814       -0.0003345702
 C          0.7954123335        1.4134901066       -0.0002782174
 C         -0.4125640682        2.0895115317       -0.0000913055
 C         -1.6021855658        1.3914919946        0.0001222595
 C         -1.6025812038        0.0015405474        0.0000000642
 C         -2.9001048579       -0.7486406103        0.0003898742
 C         -0.3948942344       -0.6919072926       -0.0003258788
 C         -0.3756605915       -2.1913806923       -0.0001885793
 H          3.9509758207       -0.8429113889        0.0009203802
 H          3.3211376101        0.5623979771        0.8943133731
 H          3.3220443903        0.5624985160       -0.8929558563
 H          1.7135777510        1.9790293606       -0.0002788837
 H         -0.4159542164        3.1695601483        0.0000889523
 H         -2.5410021819        1.9257135562        0.0004018354
 H         -3.7413329900       -0.0603509269        0.0006113626
 H         -2.9742101959       -1.3874820365        0.8797675658
 H         -2.9748154624       -1.3875057469       -0.8789354415
 H         -0.8915405127       -2.5798904340       -0.8777167451
 H         -0.8818784190       -2.5793402927        0.8832498447
 H          0.6471117916       -2.5529820192       -0.0055442102
  22
        -29.45156652
 C          3.1838861687       -0.0821673212        0.0032352728
 O          1.9390076907       -0.7315636788       -0.0012267015
 C          0.8031471589        0.0318677108       -0.0010859290
 C          0.7937124913        1.4186965668       -0.0012956002
 C         -0.4167737145        2.0913253386       -0.0008255170
 C         -1.6036662913        1.3896435675        0.0002884081
 C         -1.6097981692       -0.0022737737        0.0004193088
 C         -2.9235114199       -0.7297943394        0.0021210392
 C         -0.4012380751       -0.6904057039       -0.0006982923
 C         -0.3042560221       -2.1871245036       -0.0016217255
 H          3.9302476570       -0.8756639787        0.0054759955
 H          3.3143303557        0.5369625390        0.8972916428
 H          3.3205754945        0.5376935827       -0.8893857350
 H          1.7125638049        1.9832789560       -0.0019903693
 H         -0.4243295479        3.1713197496       -0.0012090717
 H         -2.5420670153        1.9246546910        0.0010285115
 H         -3.7469686747       -0.0200813917        0.0042774451
 H         -3.0151175772       -1.3619446772        0.8843620472
 H         -3.0183998514       -1.3604534012       -0.8808389359
 H         -1.2789685608       -2.6611504465        0.0002842123
 H          0.2541509143       -2.5184525429        0.8728504493
 H          0.2500880807       -2.5174568831       -0.8790724718
