  21
        -32.50375125
 C          3.1829064854        1.3602373874        0.1673807697
 C          2.0058305378        0.4384626787        0.0718939830
 C          2.1656636421       -0.9348533227       -0.0524154439
 C          1.0664944139       -1.7704468670       -0.1316991546
 C         -0.2300728794       -1.2754742507       -0.0886735721
 C         -1.3981278555       -2.2044346352       -0.1624604920
 C         -0.3981057949        0.1118253600        0.0129753830
 C         -1.7614956564        0.7142812941        0.0751678656
 O         -2.6952862709        0.2315807465        0.6527130168
 O         -1.8994849720        1.8904246095       -0.5747897708
 C          0.7145810737        0.9457356341        0.0936479738
 H          4.1021413470        0.8004218810        0.3172620656
 H          3.0578791166        2.0568042741        0.9944810427
 H          3.2821439775        1.9436528589       -0.7482450529
 H          3.1601233222       -1.3561957741       -0.0801739348
 H          1.2180686144       -2.8363737762       -0.2214273775
 H         -1.0675038522       -3.2214807388       -0.3576797246
 H         -2.0908103629       -1.8987189467       -0.9443009149
 H         -1.9487695742       -2.1826725780        0.7761076961
 H         -1.0853467048        2.1548620711       -1.0237532934
 H          0.5819868160        2.0136063692        0.2197892980
  21
        -32.50270497
 C          3.1883074779        1.3248456834        0.4554020304
 C          2.0064486434        0.4394788636        0.2102110021
 C          2.1716705300       -0.8998626436       -0.1250136525
 C          1.0774002346       -1.7132950894       -0.3455978684
 C         -0.2220372959       -1.2243294882       -0.2703328143
 C         -1.3713400007       -2.1711627502       -0.4767319004
 C         -0.3919770855        0.1287737215        0.0395189548
 C         -1.7222707933        0.7980067966        0.1409561288
 O         -2.0020942076        1.5799764198        1.0059585001
 O         -2.6068232713        0.5143868047       -0.8385676464
 C          0.7155102842        0.9334088049        0.2968649427
 H          4.0046437690        0.7647122754        0.9054900507
 H          2.9220563046        2.1519779892        1.1082494791
 H          3.5446305122        1.7390813381       -0.4883522642
 H          3.1672648679       -1.3134082800       -0.1968513713
 H          1.2292745430       -2.7581310781       -0.5762929964
 H         -1.0976540485       -3.1612548988       -0.1174782651
 H         -1.6126603220       -2.2700726948       -1.5375671126
 H         -2.2622225777       -1.8510835802        0.0586070498
 H         -2.2428005233       -0.1015472938       -1.4874106043
 H          0.5421311741        1.9652225408        0.5649097873
