24
 energy: -46.369965513447 gnorm: 0.000071705230 xtb: 6.4.1 (23d549d)
C        -4.61557146740000   -0.90736242390000    0.41882860810000
C        -3.69009221540000   -0.28964665010000   -0.30271513910000
C        -2.24900022790000   -0.40171808060000   -0.08383896180000
C        -1.70521468600000   -1.61839230780000    0.33059983100000
C        -0.34629054380000   -1.79041336400000    0.47900682550000
C         0.50367966810000   -0.73122569260000    0.18968443170000
O         1.87666069530000   -1.00920995210000    0.35318694870000
C         2.77932608960000   -0.09056495190000    0.09802119920000
F         2.68386599550000    1.01473516000000    0.86144464860000
F         3.98773553790000   -0.59937204630000    0.31990420020000
F         2.77956158820000    0.35522500050000   -1.17292762110000
C         0.00099065720000    0.48190608290000   -0.22935560440000
C        -1.37862703500000    0.66707559950000   -0.35113429080000
C        -1.83970245540000    2.00047945530000   -0.73391006730000
C        -2.92762230890000    2.60154302480000   -0.27100719240000
H        -5.66380900200000   -0.80710613780000    0.19592792960000
H        -4.36602351590000   -1.51487230990000    1.27271542780000
H        -3.98518181710000    0.34775167110000   -1.12649547350000
H        -2.36626883520000   -2.45021534080000    0.51814090030000
H         0.07497370260000   -2.72878882650000    0.79906144290000
H         0.64840615600000    1.31582050570000   -0.45231118090000
H        -1.18271204110000    2.53228519380000   -1.41109776110000
H        -3.57668885040000    2.13441606230000    0.45013580920000
H        -3.19096934350000    3.59903113210000   -0.57935497340000
