  46
        -62.55164717
 C         -7.9742611646       -0.5420816250       -0.7096548789
 C         -7.1386196874        0.0134872103        0.1600139773
 C         -5.6829733738        0.0082161006        0.0997183060
 C         -4.9632052389        0.6946834063        1.0798523866
 C         -3.5842145991        0.7289747082        1.0640140084
 C         -2.8704923877        0.0689544209        0.0675885070
 C         -1.3969854781        0.0694600895        0.0490946077
 C         -0.7346558873       -1.1533972928        0.0276949332
 C          0.6475665032       -1.2528107036        0.0325395615
 C          1.2885948109       -2.6088261953       -0.0055988638
 C          1.3970060945       -0.0732449343        0.0459836750
 C          2.8705099543       -0.0724867306        0.0631807608
 C          3.5821488752        0.6305264041       -0.9064641600
 C          4.9609441908        0.6576028513       -0.8951116910
 C          5.6830409196       -0.0093060556        0.0960858712
 C          7.1386172044       -0.0127705667        0.1576947573
 C          7.9741176695        0.5702580848       -0.6939887776
 C          4.9636645731       -0.7003162776        1.0733254974
 C          3.5847194404       -0.7352382796        1.0574720737
 C          0.7346135176        1.1496166067        0.0275320670
 C         -0.6476078332        1.2490105461        0.0355927097
 C         -1.2886874735        2.6050728471        0.0006668390
 C         -3.5825143410       -0.6310978539       -0.9039063233
 C         -4.9613253544       -0.6568697456       -0.8930004979
 H         -9.0409556780       -0.4816976664       -0.5771400807
 H         -7.6395900004       -1.0740746970       -1.5836378358
 H         -7.5487379376        0.5383108041        1.0150493089
 H         -5.4992600050        1.2092002477        1.8656030907
 H         -3.0498036446        1.2543998157        1.8417507563
 H         -1.3250555965       -2.0597013853        0.0214381309
 H          0.6746212471       -3.2988658443       -0.5811338605
 H          1.3851037187       -3.0136145082        1.0022567108
 H          2.2801349067       -2.5628648005       -0.4495627952
 H          3.0400021200        1.1475291360       -1.6857564081
 H          5.4825395944        1.2050818090       -1.6650573330
 H          7.5489299664       -0.5593534249        0.9989149939
 H          7.6394804023        1.1271796414       -1.5523120578
 H          9.0407430526        0.5093851274       -0.5611036171
 H          5.4999804188       -1.2169680513        1.8574954415
 H          3.0506916398       -1.2633713601        1.8336101158
 H          1.3249521781        2.0559527826        0.0213232090
 H         -0.6779352931        3.2949346226       -0.5785207886
 H         -1.3792079195        3.0099399190        1.0090474442
 H         -2.2827846827        2.5592526596       -0.4375424637
 H         -3.0405761707       -1.1468215190       -1.6841763337
 H         -5.4832834551       -1.2030522480       -1.6636141235
  46
        -62.55159820
 C         -8.0210515544        0.1556025922       -0.6106255583
 C         -7.1286070370       -0.2349213844        0.2917441329
 C         -5.6784330796       -0.1497711239        0.1808942379
 C         -4.8929004492       -0.5528180067        1.2628451488
 C         -3.5160261725       -0.4909312821        1.2088615130
 C         -2.8704008923       -0.0131315492        0.0714080531
 C         -1.3982988114        0.0292585583        0.0214787665
 C         -0.6945673501       -1.1401285534        0.2901033764
 C          0.6895919170       -1.2008837818        0.2629606578
 C          1.3746373312       -2.5094011276        0.5270667562
 C          1.3983658054       -0.0343912489       -0.0371106972
 C          2.8707315405        0.0083901091       -0.0802061926
 C          3.5234350821        0.4795543831       -1.2162495903
 C          4.9007294857        0.5406000029       -1.2618030817
 C          5.6792453335        0.1457692125       -0.1717634301
 C          7.1300194877        0.2320677789       -0.2731248525
 C          8.0157807293       -0.1059046957        0.6567623781
 C          5.0183240998       -0.3113981138        0.9696073333
 C          3.6415694603       -0.3810476199        1.0126197313
 C          0.6947672174        1.1346052805       -0.3072926694
 C         -0.6894876311        1.1953960347       -0.2801565882
 C         -1.3740232937        2.5040387174       -0.5449980035
 C         -3.6482811912        0.3820307269       -1.0143402444
 C         -5.0248323604        0.3130024288       -0.9623870610
 H         -9.0778583825        0.0514850080       -0.4334798640
 H         -7.7445405284        0.5933682354       -1.5544027886
 H         -7.4814216203       -0.6622701019        1.2231888758
 H         -5.3752930038       -0.9185615507        2.1589452275
 H         -2.9268383479       -0.8008392802        2.0603749727
 H         -1.2541584056       -2.0397824753        0.5079603898
 H          0.7678017422       -3.3326636205        0.1550660280
 H          1.5139976422       -2.6581708851        1.5982686511
 H          2.3508311472       -2.5457524650        0.0495177556
 H          2.9396998346        0.7844079107       -2.0733279675
 H          5.3889381432        0.9008250494       -2.1569882218
 H          7.4897157804        0.6159744446       -1.2207439543
 H          7.7327742835       -0.4944921685        1.6200244843
 H          9.0736129361       -0.0042186472        0.4844927790
 H          5.5867026768       -0.6144953355        1.8354448855
 H          3.1503499349       -0.7222516086        1.9120387438
 H          1.2544946105        2.0341079647       -0.5254699956
 H         -0.7657338970        3.3274532774       -0.1757018707
 H         -2.3492034733        2.5420815594       -0.0655061357
 H         -1.5153921683        2.6510569472       -1.6162091163
 H         -3.1630820317        0.7267628098       -1.9156573711
 H         -5.5988249588        0.6185599935       -1.8236730187
