  32
        -53.33902294
 C          0.7829598596        3.6549819226        0.5405420217
 C          1.2825421371        2.5774783756       -0.0507553951
 C          0.6499950665        1.2622805210       -0.0246724440
 C         -0.7380923847        1.1581587902       -0.0340607451
 C         -1.3933892939       -0.0664510899       -0.0292664860
 C         -2.8774789437       -0.0856340083        0.0153864059
 O         -3.5589716600       -1.0078551438        0.3908488356
 O         -3.4057122440        1.0748361903       -0.4097399992
 C         -4.8221450725        1.1535638190       -0.3816197178
 C         -0.6496962330       -1.2613624183       -0.0250353588
 C         -1.2817271540       -2.5768353107       -0.0515912031
 C         -0.7837640399       -3.6528699839        0.5436610715
 C          0.7383352995       -1.1572787541       -0.0337509429
 C          1.3936654337        0.0673056725       -0.0287197865
 C          2.8777981951        0.0853819051        0.0161846946
 O          3.5602271762        1.0058723662        0.3940998597
 O          3.4047085196       -1.0746743123       -0.4118274159
 C          4.8209552113       -1.1559856418       -0.3832061653
 H          1.2851008097        4.6053575434        0.4902052064
 H         -0.1252468050        3.6255928796        1.1197116586
 H          2.2281570924        2.6413093779       -0.5686544994
 H         -1.3292695721        2.0599181039       -0.0541988879
 H         -5.0781151360        2.1489752998       -0.7352116192
 H         -5.1913520913        0.9981786015        0.6343909206
 H         -5.2583193598        0.3920267353       -1.0316224993
 H         -2.2250382120       -2.6420808571       -0.5734976423
 H          0.1219571477       -3.6214561152        1.1266249451
 H         -1.2848104591       -4.6037953154        0.4929705082
 H          1.3293700767       -2.0591377714       -0.0535170790
 H          5.0749751105       -2.1532193239       -0.7331117473
 H          5.1903676064       -0.9974897764        0.6322415931
 H          5.2587263898       -0.3978527224       -1.0361194284
  32
        -53.33840600
 C          1.0311439213        3.7541689555        0.5938968057
 C          1.4577352830        2.6404858927        0.0119387577
 C          0.7441578697        1.3686771800        0.0624847405
 C         -0.6476352485        1.3497383722        0.0987812927
 C         -1.3774441454        0.1693411766        0.1268372142
 C         -2.8562587480        0.3233247400        0.1062992867
 O         -3.4356576414        1.2959883985        0.5234263124
 O         -3.4855450762       -0.7108412379       -0.4680032884
 C         -4.8981127806       -0.6041425941       -0.5592279011
 C         -0.7146566903       -1.0691720835        0.1352381526
 C         -1.4220394838       -2.3432657582        0.2437853241
 C         -1.0389361015       -3.4597917350       -0.3599030911
 C          0.6756723733       -1.0530771528        0.0868293190
 C          1.4076533212        0.1276612199        0.0410481225
 C          2.8902421633        0.0453835420        0.0291452677
 O          3.6498659709        0.9143202333        0.3799594599
 O          3.3180479239       -1.1463309066       -0.4238068391
 C          4.7253879720       -1.3248058600       -0.4523504971
 H          1.5916768185        4.6703674935        0.5272980918
 H          0.1266938723        3.7886719596        1.1782810172
 H          2.4014935989        2.6375825892       -0.5132343115
 H         -1.1954466461        2.2798277434        0.0832568241
 H         -5.2406423954       -1.5184030945       -1.0367801566
 H         -5.1745510785        0.2679438739       -1.1553873060
 H         -5.3370384973       -0.4997954052        0.4354041940
 H         -2.3095957733       -2.3427375396        0.8605884352
 H         -0.1842941529       -3.4910906489       -1.0150026482
 H         -1.5828011486       -4.3807643463       -0.2398976730
 H          1.2089556469       -1.9902265589        0.1148774008
 H          4.8966494912       -2.3316583753       -0.8243033358
 H          5.1437298716       -1.2075699527        0.5495915180
 H          5.1888411130       -0.5884206268       -1.1123750834
  32
        -53.33789650
 C          1.2821951703        3.5318230113       -0.2907568502
 C          1.6119753271        2.3871436126        0.2914762215
 C          0.8148826929        1.1657854734        0.2090778080
 C         -0.5741485653        1.2440205771        0.2064794409
 C         -1.3865978831        0.1172751450        0.1857286832
 C         -2.8485027053        0.3790819969        0.1177653721
 O         -3.3682854413        1.3934450419        0.5142373337
 O         -3.5331297785       -0.6070724702       -0.4770447883
 C         -4.9306026907       -0.3980011500       -0.6122702047
 C         -0.8149146419       -1.1657164942        0.2101197805
 C         -1.6118626283       -2.3870835462        0.2935944617
 C         -1.2814995029       -3.5325703946       -0.2867463475
 C          0.5741453662       -1.2439368574        0.2079959376
 C          1.3865581292       -0.1172180887        0.1862163978
 C          2.8485368215       -0.3787483489        0.1187580541
 O          3.3687986019       -1.3918859562        0.5176914724
 O          3.5325007351        0.6061732259       -0.4788575458
 C          4.9300160664        0.3974902938       -0.6141580298
 H          1.8935968591        4.4117341659       -0.1895723395
 H          0.4043222539        3.6284177188       -0.9073428311
 H          2.5226747908        2.3210664735        0.8697133067
 H         -1.0554211939        2.2101815224        0.2379896292
 H         -5.3206419677       -1.2769026707       -1.1188698431
 H         -5.1244250986        0.5022534402       -1.1991171337
 H         -5.3945951292       -0.2805783544        0.3694669027
 H         -2.5230466999       -2.3203662303        0.8709776458
 H         -0.4032313309       -3.6300270027       -0.9026374642
 H         -1.8929104515       -4.4123765152       -0.1847016225
 H          1.0554029669       -2.2100607718        0.2407291334
 H          5.3185912317        1.2729942053       -1.1277074009
 H          5.1240748373       -0.5069428157       -1.1944523446
 H          5.3952920278        0.2879353124        0.3678760554
  32
        -53.33767556
 C          2.2418676367        2.8510631329        0.5101099927
 C          1.2287325701        2.4487868831       -0.2444327369
 C          0.5937780002        1.1372616568       -0.1492921651
 C         -0.7846324174        1.0375375119       -0.3067664628
 C         -1.4664778622       -0.1618895507       -0.1372900935
 C         -2.9394767860       -0.1568663221       -0.3469481792
 O         -3.6074716530       -1.0760766139       -0.7514812231
 O         -3.4694389769        1.0398628773       -0.0462793573
 C         -4.8710520594        1.1600835998       -0.2341603406
 C         -0.7618923291       -1.3252387746        0.2257733427
 C         -1.4342576665       -2.5979809486        0.4696913879
 C         -0.9832529544       -3.5364803827        1.2933136082
 C          0.6234869199       -1.2265897928        0.3508590107
 C          1.3009537977       -0.0358687058        0.1478798180
 C          2.7899815372       -0.0830263959        0.2017332592
 O          3.4287402707       -0.5912070782        1.0875922896
 O          3.3305262605        0.4447130012       -0.9039215903
 C          4.7483283287        0.4516102692       -0.9767577997
 H          2.6544333567        3.8414790832        0.4207099840
 H          2.6858113497        2.2136765340        1.2574480975
 H          0.7716255480        3.1339461560       -0.9468312180
 H         -1.3477464355        1.9234201669       -0.5590852249
 H         -5.1348991943        2.1658622655        0.0823838945
 H         -5.3996048705        0.4169780797        0.3666016447
 H         -5.1280181643        1.0069433808       -1.2845747122
 H         -2.3696042861       -2.7409170580       -0.0497420767
 H         -0.0779506529       -3.4209988661        1.8662105895
 H         -1.5231564112       -4.4561458889        1.4394001006
 H          1.1994810848       -2.1095888359        0.5815579621
 H          5.0037551340        0.5646982502       -2.0273646749
 H          5.1531993589       -0.4803420501       -0.5770298228
 H          5.1457007252        1.2893396121       -0.3993530584
  32
        -53.33740202
 C          2.4297019048        2.8387136768        0.5337403039
 C          1.4203501080        2.5027412815       -0.2572221654
 C          0.6961689979        1.2365955461       -0.1851995264
 C         -0.6799234204        1.2291856491       -0.3846304316
 C         -1.4450326760        0.0793886588       -0.2290482901
 C         -2.9093654072        0.2525014501       -0.4197608761
 O         -3.3971379215        1.1138357360       -1.1101443808
 O         -3.6427533597       -0.6151200871        0.2900493050
 C         -5.0507255725       -0.4693634856        0.1831278923
 C         -0.8314695911       -1.1337305375        0.1224219724
 C         -1.5704467165       -2.3874786756        0.2528568830
 C         -1.2821216028       -3.3271226858        1.1427656391
 C          0.5520917318       -1.1305418978        0.2905572015
 C          1.3117017148        0.0176864618        0.1320150363
 C          2.7916656987       -0.1269909823        0.2440294585
 O          3.3617256796       -0.6726726828        1.1541148613
 O          3.4085217990        0.3614998529       -0.8390909428
 C          4.8252880277        0.2730712741       -0.8523919975
 H          2.9093450743        3.7997420083        0.4600401929
 H          2.8032363346        2.1751839459        1.2968826027
 H          1.0340495933        3.2138652879       -0.9757560090
 H         -1.1893748271        2.1448472809       -0.6483466830
 H         -5.4837617722       -1.2264933274        0.8314092038
 H         -5.3711970125       -0.6170726473       -0.8504071984
 H         -5.3537993733        0.5298806150        0.5025803864
 H         -2.3976438823       -2.5263249992       -0.4287037339
 H         -0.4917809925       -3.2068530744        1.8647631169
 H         -1.8452051674       -4.2427049795        1.1981477396
 H          1.0582521145       -2.0557718580        0.5219137108
 H          5.1344738768        0.4569282163       -1.8780897338
 H          5.1474900977       -0.7164128744       -0.5215131215
 H          5.2530832884        1.0261793642       -0.1868936846
  32
        -53.33663553
 C          1.2852989404        3.4284306040        0.8139828894
 C          1.5765668242        2.3900460903        0.0425856147
 C          0.7989228984        1.1538329705        0.0090904741
 C         -0.5871142346        1.2069605668        0.1227619475
 C         -1.3935285095        0.0793183682        0.0329235932
 C         -2.8518188026        0.3449398843        0.1920054123
 O         -3.2912606746        1.1763188114        0.9470297852
 O         -3.6302017957       -0.3810090363       -0.6212355567
 C         -5.0249695311       -0.1255467259       -0.5351040333
 C         -0.8133355070       -1.1878084336       -0.1517417436
 C         -1.5975568983       -2.4192047161       -0.1974012544
 C         -1.1474771962       -3.6091006205        0.1814148509
 C          0.5735144036       -1.2393703541       -0.2639749747
 C          1.3781502684       -0.1101840395       -0.1862077917
 C          2.8410592660       -0.3570784797       -0.2819738373
 O          3.3242621846       -1.3133887972       -0.8377336097
 O          3.5766213294        0.5641716322        0.3542639228
 C          4.9807453825        0.3570561458        0.3367377387
 H          1.8785645466        4.3263389919        0.7973918737
 H          0.4609684902        3.4119915377        1.5071335238
 H          2.4372947114        2.4281520803       -0.6099840554
 H         -1.0682277687        2.1632452863        0.2640618625
 H         -5.4952730246       -0.7477284235       -1.2922296050
 H         -5.2287644753        0.9303933023       -0.7232978691
 H         -5.3960313442       -0.3820481368        0.4593833362
 H         -2.6134175105       -2.3203549594       -0.5471072938
 H         -0.1542699046       -3.7571654007        0.5706817463
 H         -1.7716580053       -4.4846663734        0.1299930077
 H          1.0614381686       -2.1871161488       -0.4341503290
 H          5.4144678543        1.1738968924        0.9076182487
 H          5.3535662591        0.3629102805       -0.6898677321
 H          5.2280592099       -0.6043103211        0.7916958509
  32
        -53.33493213
 C          2.1783106007        3.0083654996        0.6885508510
 C          1.1284690350        2.6411505821       -0.0307834031
 C          0.5753900466        1.2882233664       -0.0526262190
 C         -0.8054933957        1.1173698276       -0.0060324137
 C         -1.3825660218       -0.1422756837        0.0597674098
 C         -2.8567807733       -0.2292134842        0.2583362134
 O         -3.4045068908       -0.8684147705        1.1187441203
 O         -3.5116439569        0.5527082136       -0.6131919974
 C         -4.9244464064        0.5922952783       -0.4728282584
 C         -0.5754691383       -1.2880987530        0.0563320341
 C         -1.1283170851       -2.6410538680        0.0335632215
 C         -2.1791986522       -3.0077788392       -0.6845548833
 C          0.8054817513       -1.1172398399        0.0101905753
 C          1.3825605894        0.1423754430       -0.0564325278
 C          2.8563104969        0.2300243153       -0.2577683193
 O          3.4019995027        0.8742490966       -1.1157762054
 O          3.5136455186       -0.5578071782        0.6064633136
 C          4.9260885327       -0.5947649531        0.4613558610
 H          2.5364838772        4.0231394135        0.6902445359
 H          2.7134025656        2.3111744879        1.3121843040
 H          0.5812309063        3.3748433023       -0.6081154822
 H         -1.4433419517        1.9888816994        0.0104763113
 H         -5.1975696494        1.0584496839        0.4762192230
 H         -5.3367790563       -0.4186593665       -0.4961408727
 H         -5.2975490440        1.1791068106       -1.3082452319
 H         -0.5797377056       -3.3754848694        0.6087141603
 H         -2.7153336366       -2.3103029767       -1.3069407332
 H         -2.5367667966       -4.0227782967       -0.6869943860
 H          1.4433585008       -1.9887237161       -0.0062853087
 H          5.2988592391       -1.2220086198        1.2668864788
 H          5.3415085277        0.4126047047        0.5332806154
 H          5.1962169866       -1.0145137167       -0.5098390512
