29
 energy: -51.518159246230 gnorm: 0.000121235417 xtb: 6.5.0 (unknown)
C           -2.02409082350000        3.94176623250000        0.12730085500000
C           -0.80583680220000        3.41541633600000        0.14949326360000
C           -0.46701545880000        1.99868874760000        0.05623922760000
C           -1.43206765370000        0.99265348370000        0.05128816510000
C           -1.07821704040000       -0.35221920880000       -0.04202414360000
C           -2.05260982770000       -1.43434624520000       -0.05081512060000
C           -3.37365529130000       -1.35812366170000        0.00833624730000
F           -4.12886416990000       -0.26953915950000        0.09090197710000
F           -4.16449267800000       -2.42849427670000       -0.00887998720000
C            0.27165528810000       -0.69420684360000       -0.13060638100000
C            1.24415903850000        0.29662182670000       -0.12354141980000
C            2.69230077310000       -0.02554208040000       -0.21151585890000
O            3.56838299740000        0.80419995200000       -0.18857097010000
O            2.91492592030000       -1.34039283240000       -0.33137992620000
C            4.27747491440000       -1.75907931080000       -0.40772966290000
C            4.90203057260000       -1.87701263530000        0.97521266190000
C            0.87512884470000        1.63319026400000       -0.02831482380000
H           -2.17182673520000        5.00553814030000        0.19867307900000
H           -2.91809567350000        3.34940285370000        0.03404432310000
H            0.05046132650000        4.07246167260000        0.23455462680000
H           -2.47010196770000        1.26658201450000        0.12766062830000
H           -1.65471287660000       -2.43674843530000       -0.11599748970000
H            0.56782200210000       -1.72871268580000       -0.20276785380000
H            4.83608537020000       -1.03854858000000       -1.01423074470000
H            4.24823617000000       -2.72752415350000       -0.91162042240000
H            4.93246394360000       -0.90054871830000        1.45223221390000
H            5.91574285540000       -2.25660662270000        0.88556603990000
H            4.32083640710000       -2.55572246110000        1.59504919800000
H            1.65339557020000        2.38206113840000       -0.02437490120000
