  19
        -35.16392084
 C         -0.7987156460       -2.8302118662       -0.1116593544
 C         -0.3980104927       -1.7071495687        0.4677232318
 C         -0.9709055552       -0.3906509837        0.2102463401
 C         -2.3348663841       -0.2452555857       -0.0639932611
 N         -2.9428254465        0.9083024665       -0.2421301329
 C         -2.2255183415        2.0152276909       -0.1316629051
 C         -0.8716112321        2.0095160897        0.1496180192
 C         -0.2144139063        0.7890483362        0.3021638408
 C          1.2291828631        0.8042799377        0.5403969803
 C          2.1168812568        0.0101582716       -0.0341215738
 F          1.8843368758       -0.9347009488       -0.9333263475
 F          3.4256282004        0.0847289365        0.1931054324
 H         -0.3499446419       -3.7779480303        0.1293518020
 H         -1.5672679946       -2.8415462679       -0.8656598021
 H          0.4067270518       -1.7313224893        1.1926573107
 H         -2.9689973689       -1.1196124008       -0.1229211543
 H         -2.7651381601        2.9417509029       -0.2731575149
 H         -0.3216289993        2.9348722298        0.2282303970
 H          1.6165623330        1.5710217262        1.1950841653
