  23
        -42.29598523
 C         -1.2329852446        3.7363345178       -0.0271394379
 C         -1.9863369816        2.6442157721        0.0159730230
 C         -1.5211438184        1.2612049941        0.0106221793
 C         -2.4693348212        0.2358988077        0.0061825070
 C         -2.1024039583       -1.0994828577       -0.0008046524
 C         -3.1080445232       -2.2079111963       -0.0065007763
 C         -0.7452221247       -1.3909030746       -0.0018397317
 F         -0.3720370483       -2.6918363332       -0.0081059134
 C          0.2449244741       -0.4049615414        0.0041786138
 C          1.6374454127       -0.8247836359        0.0036871824
 C          2.7213002651       -0.0642412994        0.0012716053
 F          2.7905828376        1.2622706121       -0.0010796503
 F          3.9562500750       -0.5584981691        0.0003944877
 C         -0.1708058090        0.9242927769        0.0108289014
 H         -1.6752744290        4.7175789177       -0.0201138520
 H         -0.1581513346        3.7061422315       -0.0725793521
 H         -3.0633226163        2.7522770067        0.0559053187
 H         -3.5201478317        0.4876005887        0.0069923001
 H         -4.1194533935       -1.8118680797       -0.0073202296
 H         -2.9750035196       -2.8410478997        0.8699143142
 H         -2.9712611884       -2.8353390212       -0.8864098296
 H          1.8187608204       -1.8899924627        0.0042799452
 H          0.5674376551        1.7062823679        0.0188941966
  23
        -42.29588280
 C         -2.7530076476        3.4167031053        0.0741490613
 C         -1.5693857555        2.8263452274       -0.0356163320
 C         -1.3053027118        1.3913997850       -0.0225990614
 C         -2.3233977418        0.4362971262       -0.0223047142
 C         -2.0454909439       -0.9198229372       -0.0070592249
 C         -3.1243404497       -1.9574599552       -0.0059524382
 C         -0.7116083270       -1.3066885650        0.0081072625
 F         -0.4321886292       -2.6307621729        0.0239950193
 C          0.3455077670       -0.3941802364        0.0037870099
 C          1.7052398121       -0.9093128402        0.0174280666
 C          2.8386949428       -0.2250661670       -0.0018916436
 F          2.9984524493        1.0927770353       -0.0382573798
 F          4.0367391006       -0.8029101369        0.0134953500
 C          0.0185903006        0.9602243720       -0.0137830233
 H         -2.8444129679        4.4888822950        0.0568384271
 H         -3.6725568118        2.8695635770        0.1902988354
 H         -0.6845339164        3.4418517292       -0.1373761587
 H         -3.3548216427        0.7507454783       -0.0404683391
 H         -4.1060888288       -1.4945957673       -0.0454812083
 H         -3.0565083930       -2.5690458668        0.8929527661
 H         -3.0092525843       -2.6212041828       -0.8617718296
 H          1.8122468978       -1.9841794304        0.0450993354
 H          0.8046948724        1.6973005287       -0.0172904545
  23
        -42.29238735
 C         -3.3282675407        3.3696193035       -0.0141496884
 C         -2.0699425561        3.0163934645       -0.2462576200
 C         -1.5126883616        1.6702326145       -0.1765172776
 C         -2.2850840460        0.5430746648        0.1113422043
 C         -1.7327234895       -0.7246304585        0.1543236881
 C         -2.5520364471       -1.9452501204        0.4343213487
 C         -0.3669965618       -0.8515470937       -0.0803959243
 F          0.1618237206       -2.0927906617       -0.0913158786
 C          0.4495131790        0.2434446143       -0.3489818663
 C          1.8862365235        0.1210618530       -0.5881209158
 C          2.7131551746       -0.6948044032        0.0453031648
 F          2.4285719159       -1.5176934622        1.0396460065
 F          4.0175594199       -0.7536494835       -0.2137588414
 C         -0.1516402791        1.4973239590       -0.4108360776
 H         -3.6419084554        4.3962600352       -0.0914094000
 H         -4.0936125331        2.6649126208        0.2613506079
 H         -1.3531986234        3.7825581167       -0.5149304083
 H         -3.3425231912        0.6499989381        0.2939515130
 H         -3.5884757375       -1.6812775920        0.6238587123
 H         -2.1542472322       -2.4738012607        1.2995021575
 H         -2.5086496655       -2.6285604040       -0.4130435500
 H          2.3224444635        0.7756533807       -1.3272931859
 H          0.4651166396        2.3561462844       -0.6317700574
  23
        -42.29236027
 C         -1.9857481986        3.9782301479        0.2285635396
 C         -2.4845549352        2.7552844513        0.0959947897
 C         -1.7382950789        1.5019070431        0.0962542907
 C         -2.4262396710        0.3110104326       -0.1483392203
 C         -1.7880362745       -0.9170502761       -0.1491608371
 C         -2.5186239029       -2.2012268089       -0.3856330591
 C         -0.4178256998       -0.9346971619        0.0878809213
 F          0.2014813033       -2.1322051874        0.1430920811
 C          0.3158900348        0.2269166657        0.3168877569
 C          1.7575480852        0.2145878567        0.5596414516
 C          2.6414941151       -0.5598500846       -0.0481709055
 F          2.4179736930       -1.4316878535       -1.0160476261
 F          3.9463492069       -0.5176088970        0.2120075941
 C         -0.3691741192        1.4378131938        0.3350758752
 H         -2.6237825142        4.8448520557        0.2130711270
 H         -0.9344209309        4.1719768803        0.3528013921
 H         -3.5531450745        2.6381019249       -0.0348588333
 H         -3.4901025737        0.3451901427       -0.3342928425
 H         -3.5731864141       -2.0183816194       -0.5707220008
 H         -2.4174506096       -2.8554650809        0.4794666878
 H         -2.0915624636       -2.7235637725       -1.2406007505
 H          2.1448897344        0.9210191647        1.2780136721
 H          0.1900778281        2.3386958646        0.5299456124
