  34
        -48.19844179
 C          5.8987181424       -0.1878332852       -0.4728979474
 C          4.9930421983        0.2302638971        0.4034459324
 C          3.5442308245        0.1996461904        0.2511316689
 C          2.7482872587        0.7577632990        1.2537450335
 C          1.3727708480        0.7422624128        1.1467253468
 C          0.7360631797        0.1805514444        0.0450380530
 C         -0.7359276263        0.1810557488       -0.0445152719
 C         -1.3722778873        0.7432995018       -1.1461356580
 C         -2.7477939737        0.7599629026       -1.2530029066
 C         -3.5441170705        0.2020445716       -0.2505695197
 C         -4.9928844689        0.2334324141       -0.4030943073
 C         -5.8988194844       -0.1939508853        0.4684910585
 C         -2.9116822018       -0.3678155698        0.8498611603
 C         -1.5262638602       -0.3829306062        0.9745707844
 N         -0.9484689336       -0.9161977489        2.1096922356
 C          1.5260204728       -0.3840998848       -0.9739733179
 N          0.9478533421       -0.9172634602       -2.1089697295
 C          2.9114519063       -0.3698501179       -0.8492790795
 H          6.9528184168       -0.1190042409       -0.2646492571
 H          5.6364064614       -0.6084944599       -1.4284485689
 H          5.3329230938        0.6515252611        1.3423528548
 H          3.2143093814        1.2081833387        2.1180555928
 H          0.7667147469        1.1885397456        1.9219472679
 H         -0.7659363765        1.1891755538       -1.9213677187
 H         -3.2135104206        1.2107882584       -2.1172696430
 H         -5.3325329421        0.6630704181       -1.3382867392
 H         -5.6369008190       -0.6242784440        1.4198361573
 H         -6.9528356689       -0.1238171865        0.2602443955
 H         -3.4979312097       -0.8165062905        1.6381094017
 H         -1.5176517727       -1.5577358018        2.6371513849
 H          0.0251263188       -1.1666830264        2.0385157290
 H         -0.0260017310       -1.1667150268       -2.0376895794
 H          1.5163675992       -1.5598642278       -2.6358810069
 H          3.4974386861       -0.8194837094       -1.6371913896
