20
 energy: -35.492033718297 gnorm: 0.000170794577 xtb: 6.4.1 (23d549d)
C        -2.53512880190000    2.55346545330000    0.16374871660000
C        -2.35259921020000    1.29452758190000   -0.21431638950000
C        -1.09441018160000    0.58686089910000   -0.09572263730000
C         0.19692484990000    1.16603541240000   -0.04654829810000
C         1.09481933200000    0.13150545500000   -0.01911576700000
C         2.56289272770000    0.14115982820000    0.03122158120000
O         3.21474326350000    1.14950345420000    0.05764089380000
O         3.13307194750000   -1.07736160140000    0.04575762610000
O         0.43587212080000   -1.05686455060000   -0.04733864410000
C        -0.88978114780000   -0.78835738430000   -0.08468886870000
C        -1.77980496150000   -1.92108600960000   -0.09408149930000
C        -3.06423624670000   -1.90802360970000    0.25140842510000
H        -3.48219240360000    3.04789571220000    0.03591306730000
H        -1.75181331530000    3.12856790240000    0.62676273110000
H        -3.16252128530000    0.73467153030000   -0.66185210470000
H         0.44646547220000    2.20631412170000   -0.05302063000000
H         2.46668842430000   -1.77963160580000    0.02258196160000
H        -1.30471770460000   -2.84962310420000   -0.38471171840000
H        -3.55771450620000   -1.01994735800000    0.60325616970000
H        -3.65614810550000   -2.80537999680000    0.20932581660000
