39
 energy: -67.420611044268 gnorm: 0.000050761410 xtb: 6.4.1 (23d549d)
F         6.50922088300000    0.09902456910000   -0.13762567690000
C         5.19470959370000    0.17591121230000   -0.33224219380000
F         4.95648978780000    1.01692919550000   -1.33069459120000
C         4.31662563650000   -0.50409103910000    0.39108802890000
C         2.86760533440000   -0.51027535530000    0.28386651800000
C         2.14611043090000   -1.30438994440000    1.17895988800000
C         0.76883917500000   -1.35566703730000    1.13691086210000
C         0.07486217190000   -0.61039504720000    0.18747992410000
N        -1.32203598070000   -0.67141388060000    0.13157109840000
C        -2.21894107590000    0.37681826530000    0.02132321190000
C        -1.84884548770000    1.78139199180000    0.11466592300000
C        -2.57272872970000    2.71058229050000   -0.63131288510000
C        -2.26285606430000    4.05468613960000   -0.55950364350000
C        -1.23434375770000    4.48856480720000    0.26157436770000
C        -0.52769888470000    3.57307003680000    1.02379458020000
C        -0.83141450650000    2.22619514100000    0.95675221620000
N        -3.44990805370000   -0.02647411710000   -0.12358804990000
C        -2.07362343310000   -1.82465217740000    0.04726352120000
C        -3.41102024570000   -1.39320801580000   -0.11560417610000
C        -4.43714530700000   -2.32270009090000   -0.24390805140000
C        -4.09686808740000   -3.65837058510000   -0.21857211370000
C        -2.77103338740000   -4.07390996380000   -0.08090650520000
C        -1.73677638790000   -3.16830273540000    0.04968214780000
C         0.78280569100000    0.17978014170000   -0.71556803550000
C         2.15944458810000    0.23296195210000   -0.66434488350000
H         4.74570839220000   -1.13203068860000    1.15872722330000
H         2.67545612510000   -1.88347485530000    1.92119410460000
H         0.22207588340000   -1.95792231770000    1.84686941800000
H        -3.37390876070000    2.35545488380000   -1.26030666010000
H        -2.82435904890000    4.76774566300000   -1.14473708920000
H        -0.98966800900000    5.53900260420000    0.31510890160000
H         0.26213057470000    3.90993835170000    1.67900386410000
H        -0.29045234170000    1.52490820000000    1.57522868910000
H        -5.45711242520000   -1.99549676830000   -0.36406307760000
H        -4.86960852880000   -4.40656989480000   -0.31516395850000
H        -2.54911617720000   -5.13076665360000   -0.07879799190000
H        -0.71184574870000   -3.49601385490000    0.14098005010000
H         0.24489975030000    0.75151091420000   -1.45664085990000
H         2.68202605400000    0.85205549640000   -1.37415446110000
