26
 energy: -36.720774040464 gnorm: 0.000065892104 xtb: 6.4.1 (23d549d)
C         3.62373528820000    1.58030235640000    0.08987685300000
C         3.07220178050000    0.38440977540000    0.25592752850000
C         1.65428684030000    0.08117363880000    0.10939754670000
C         0.67150373220000    1.05065939150000    0.29060426650000
C        -0.68033646640000    0.76038056620000    0.15091497640000
C        -1.64381095850000    1.85598330410000    0.18013257620000
C        -2.68776541870000    1.96327133310000   -0.63482089990000
C        -1.00617529830000   -0.59614589800000   -0.06792023050000
N        -2.28615177360000   -1.09638826880000   -0.07675164320000
N        -3.31947962490000   -0.61203011480000    0.74516740310000
N        -0.06949220190000   -1.51676740200000   -0.28648254500000
C         1.21181225390000   -1.20761813780000   -0.23830038970000
C         2.16070759500000   -2.32016698950000   -0.56226778360000
H         4.68120320780000    1.73472188540000    0.22003316500000
H         3.05141105900000    2.44651419400000   -0.19679866080000
H         3.70460100220000   -0.45571857600000    0.51088363590000
H         0.96036512820000    2.06469855540000    0.52795045330000
H        -1.42136890250000    2.65278007800000    0.88056900910000
H        -2.88863931250000    1.22707864380000   -1.39673860750000
H        -3.34651418370000    2.81463723320000   -0.60023622240000
H        -2.29517727970000   -2.10862139810000   -0.14443751690000
H        -3.80124516830000    0.15612002320000    0.27502163840000
H        -2.94588661590000   -0.24322760730000    1.62019105670000
H         1.59241011120000   -3.18271169630000   -0.89779158900000
H         2.73661623450000   -2.60088295110000    0.31901727570000
H         2.85515338560000   -2.01690448900000   -1.34334701370000
