37
 energy: -57.034105598149 gnorm: 0.000051741353 xtb: 6.4.1 (23d549d)
C        -7.06284164150000   -0.45169065850000   -0.08190399660000
C        -5.78707804090000   -0.81528537930000   -0.10394257720000
C        -4.62829544550000    0.06636344030000    0.00252158830000
C        -4.71707271710000    1.45532770960000    0.13694367930000
C        -3.54943133550000    2.19177703110000    0.22847165880000
C        -2.33246930830000    1.53589360710000    0.18288047730000
C        -2.33242778750000    0.14659149560000    0.04637262070000
C        -1.06845973160000   -0.60381567950000   -0.00493789000000
C        -1.07205231500000   -1.99968844880000   -0.04062749030000
C         0.14149356310000   -2.66294791470000   -0.08047168480000
C         1.31013137040000   -1.92247320830000   -0.08519228340000
C         1.21855759240000   -0.52955613740000   -0.05193461660000
C         2.43260656890000    0.30127321790000   -0.06315115070000
C         2.34196281900000    1.69193799990000   -0.15822738630000
C         3.51186135050000    2.42905518300000   -0.16965261870000
C         4.72301760810000    1.76491627700000   -0.08516797510000
C         4.72314836190000    0.36949004360000    0.00914692480000
C         5.98207898000000   -0.36314314600000    0.10471828670000
C         6.05766911020000   -1.68130126840000    0.23514722860000
N         3.59468129530000   -0.33320269960000    0.01677762520000
N         0.05356945810000    0.10667431950000   -0.01225372070000
N        -3.45403639190000   -0.55765360390000   -0.03906674830000
H        -7.85238316440000   -1.17845842910000   -0.16818592730000
H        -7.37784437480000    0.57290175780000    0.02179567770000
H        -5.52003681650000   -1.85812298560000   -0.20950626840000
H        -5.67688398120000    1.94513777620000    0.16916844160000
H        -3.58942394310000    3.26694405680000    0.33476839640000
H        -1.39384919880000    2.05960548910000    0.25205131130000
H        -2.01502846050000   -2.52089889320000   -0.03522439950000
H         0.17595540070000   -3.74304980260000   -0.10761074000000
H         2.28392731280000   -2.38217218180000   -0.11616351220000
H         1.37102026810000    2.15350295880000   -0.22376926390000
H         3.48209418910000    3.50718888200000   -0.24410665080000
H         5.65613971910000    2.30825802750000   -0.09060001580000
H         6.87736582020000    0.24382670150000    0.06592222480000
H         5.16207783060000   -2.27633300750000    0.27634752570000
H         7.00015474080000   -2.19659222400000    0.30498401290000
