32
 energy: -39.103380675967 gnorm: 0.000100828436 xtb: 6.4.1 (23d549d)
C         3.57644715580000   -2.31486348220000   -0.01865905800000
C         2.25045393990000   -2.27389598370000    0.02517076640000
C         1.40950643270000   -1.08175193300000    0.01191610370000
C         1.92689680870000    0.21015861630000   -0.00123722570000
C         1.08619383800000    1.31719256300000   -0.01254672120000
C         1.68463415820000    2.64818555960000   -0.02285862080000
C         1.05000896580000    3.81271857020000    0.03292978360000
C        -0.29599437600000    1.11671906340000   -0.01493672380000
C        -0.84422534610000   -0.15597827810000   -0.00169315150000
C        -2.34557447080000   -0.40637978950000   -0.00276980400000
C        -3.16233692940000    0.88863087030000   -0.01525169400000
C        -2.71642178810000   -1.21603592110000   -1.25318099080000
C        -2.72174455110000   -1.19466302890000    1.25970482510000
C         0.02531778670000   -1.24132432570000    0.01306842120000
H         4.10803999200000   -3.25103457490000   -0.00495604360000
H         4.18739329800000   -1.43014222280000   -0.07122110880000
H         1.70243845040000   -3.20787889450000    0.07286628540000
H         2.99543570640000    0.36357426620000    0.00173862960000
H         2.76708211270000    2.64932363400000   -0.07707148480000
H        -0.02163129400000    3.89468499230000    0.09487087040000
H         1.58989075790000    4.74419743110000    0.02115764360000
H        -0.93640868950000    1.98112550830000   -0.03023860290000
H        -2.95341657600000    1.47517147110000   -0.90705593860000
H        -2.95539835140000    1.49063282840000    0.86667362420000
H        -4.22349803550000    0.64708177770000   -0.01442867290000
H        -2.43198747690000   -0.67150534640000   -2.15131362620000
H        -3.78982745740000   -1.39197870720000   -1.28122995730000
H        -2.21403137940000   -2.17922411660000   -1.26646799890000
H        -2.43757792920000   -0.63656813940000    2.14955785730000
H        -2.22264951520000   -2.15915387020000    1.28973896090000
H        -3.79574664580000   -1.36681842340000    1.28814240360000
H        -0.36929187460000   -2.24699891930000    0.02333762750000
