22
 energy: -29.879580324476 gnorm: 0.000048143027 xtb: 6.4.1 (23d549d)
C        -3.89026085940000    0.77845049160000    0.16890331870000
C        -2.92948181420000   -0.13434094620000    0.09492810660000
C        -1.49744980360000    0.12061334620000   -0.00034818120000
C        -0.92961363920000    1.39396863180000   -0.08548966060000
C         0.44305716480000    1.49555985550000   -0.15433633280000
C         1.24571414410000    0.35205068730000   -0.12139649400000
C         2.69446442890000    0.52733624210000   -0.16777929840000
C         3.60346708550000   -0.19786947910000    0.47005069620000
C         0.58031847430000   -0.88656174430000   -0.07926532850000
C         1.29001732240000   -2.20404875810000   -0.14165457390000
N        -0.73619696810000   -0.97183680120000   -0.02139361060000
H        -4.92657217070000    0.49527198560000    0.23924534920000
H        -3.69173138380000    1.83696477120000    0.16461680700000
H        -3.17475976580000   -1.18766865660000    0.10855257160000
H        -1.54579587430000    2.27836544430000   -0.10463866050000
H         0.91269338150000    2.46814696480000   -0.21948206040000
H         3.01915097010000    1.37909601900000   -0.75548954050000
H         3.34365648170000   -1.01854252740000    1.11448676620000
H         4.65317048580000    0.03063625810000    0.39163364900000
H         2.19139946580000   -2.13725451550000   -0.74566730660000
H         0.61395091540000   -2.94485625740000   -0.56059297300000
H         1.56365034390000   -2.53300018540000    0.85993101900000
