  49
        -65.99962844
 C         -6.2820506972       -0.9082498226        0.0133882488
 C         -5.1207861144       -1.2903535868        0.5330988066
 C         -3.7972067773       -0.8312597917        0.1412462379
 C         -3.5718537185        0.1167672052       -0.8564257963
 C         -2.2947062593        0.5158923461       -1.1913309338
 C         -1.1746604987        0.0016164208       -0.5349323718
 C         -1.4028967531       -0.9446230786        0.4680787670
 C         -2.6791446814       -1.3583319829        0.7899316446
 S         -0.0442305065       -1.5923665417        1.4078045647
 C          1.2053421145       -1.5185681054        0.1516316569
 C          2.2374970726       -2.4331096061        0.1968719236
 C          3.2839856001       -2.3914426937       -0.7259918655
 C          4.3645152050       -3.3586291980       -0.6109923570
 C          5.4580794105       -3.4218985446       -1.3624138704
 C          3.2242338661       -1.4153011120       -1.7201063019
 C          2.1800309116       -0.5158744846       -1.7790756204
 C          1.1555145162       -0.5251826135       -0.8302460058
 N          0.1158221812        0.3979493266       -0.8729272682
 C          0.3465225964        1.7331636023       -1.3812594109
 C         -0.1369484192        2.7931103880       -0.3850997619
 C          0.6012118103        2.6780462824        0.9471689837
 C          0.0775652681        3.6414689907        2.0118654937
 C          0.2544492226        5.1251022176        1.6835527778
 C          1.7139957440        5.5392936332        1.5360481065
 H         -7.2136935819       -1.3110550146        0.3716722247
 H         -6.3570156947       -0.1878532700       -0.7829331272
 H         -5.1211157101       -2.0219787681        1.3320433673
 H         -4.4048065039        0.5498506759       -1.3873791937
 H         -2.1653908120        1.2385973790       -1.9813079895
 H         -2.8029958353       -2.0871901936        1.5774408690
 H          2.2368056818       -3.1743936329        0.9824993022
 H          4.2329374760       -4.0832843639        0.1833915244
 H          5.6566936361       -2.7311320974       -2.1637353425
 H          6.2056866096       -4.1786137986       -1.1981046063
 H          3.9965502300       -1.3613765889       -2.4709239981
 H          2.1548153139        0.2024167231       -2.5843152118
 H         -0.1304839672        1.8822508314       -2.3583388838
 H          1.4228307607        1.8566155774       -1.5089620237
 H         -1.2091245581        2.6833324723       -0.2129703343
 H          0.0370427429        3.7735724221       -0.8303777761
 H          1.6685606193        2.8432461953        0.7888290282
 H          0.4829816517        1.6609372928        1.3277689932
 H          0.5943576338        3.4289300413        2.9508194582
 H         -0.9856287114        3.4430398676        2.1700011273
 H         -0.1955550336        5.7055145164        2.4926689510
 H         -0.2888019375        5.3705661903        0.7693092630
 H          2.2810550021        5.2537104132        2.4194739300
 H          1.7895660042        6.6176118848        1.4143661519
 H          2.1700924959        5.0703095160        0.6679805732
