24
 energy: -46.372256720562 gnorm: 0.000089100074 xtb: 6.4.1 (23d549d)
C        -3.93228437500000   -1.90894420720000    0.35774402970000
C        -2.62669395430000   -1.86659236240000    0.12285767110000
C        -1.80037881490000   -0.66672933500000    0.03920153900000
C        -2.33496001140000    0.61372704960000   -0.04634132670000
C        -1.52299841340000    1.74436945730000   -0.11915918640000
C        -2.15026464280000    3.05921808080000   -0.20421824340000
C        -1.53404748050000    4.23374342990000   -0.15741423710000
C        -0.14036623380000    1.57290781880000   -0.11239740860000
C         0.39375784050000    0.29867955450000   -0.03537446520000
O         1.80508249030000    0.25704146040000   -0.04256122600000
C         2.44142160300000   -0.89001102000000    0.01069719340000
F         2.20587123130000   -1.60976229280000    1.12436799850000
F         2.17808085980000   -1.72425365970000   -1.01321495290000
F         3.75088034430000   -0.65844935210000   -0.01842656020000
C        -0.41011704540000   -0.82094024750000    0.03748942180000
H        -4.45958533540000   -2.84577291010000    0.40814858500000
H        -4.52586769890000   -1.02553462020000    0.51890914360000
H        -2.08598013940000   -2.79544287910000   -0.00716454880000
H        -3.40613740470000    0.74174491710000   -0.06452959410000
H        -3.22816256290000    3.03528069800000   -0.30481032220000
H        -0.46799361570000    4.33007392410000   -0.04604278200000
H        -2.08544824710000    5.15571276540000   -0.22451579740000
H         0.53544855110000    2.40807749010000   -0.17598792930000
H         0.00344393090000   -1.81519071490000    0.09785397810000
