  24
        -37.67326957
 C          4.1281898970       -0.6887611849        0.1407923488
 C          3.1504233432        0.1519403434       -0.1825668178
 C          1.7420301298       -0.1312694543       -0.0729954412
 N          1.2369708037       -1.3842243565        0.0234572933
 N         -0.0981809372       -1.4127268386        0.0342831274
 C         -0.4839448842       -0.1486774695       -0.0513863543
 N         -1.7941232334        0.2711720537       -0.0503459131
 C         -2.9647452953       -0.4405955266        0.0219080184
 C         -2.8352770720       -1.9305807684        0.1197284332
 O         -4.0181794567        0.1576938231        0.0032211275
 C          0.6391162010        0.7243577982       -0.1214208888
 C          0.5978835011        2.1672698197       -0.2052041055
 C          1.5172397964        2.9920270847        0.2825105445
 H          5.1616562661       -0.4177196085        0.0174234542
 H          3.9415643472       -1.6654961793        0.5555447690
 H          3.3828532370        1.1342042835       -0.5697733429
 H          1.7482683123       -2.2506525628        0.0391978081
 H         -1.9228796762        1.2745496183       -0.1063513853
 H         -2.2937158269       -2.3112255928       -0.7419620559
 H         -3.8268505261       -2.3711617224        0.1676686329
 H         -2.2623826169       -2.1926292228        1.0051098310
 H         -0.2741685810        2.5786457071       -0.7013519793
 H          2.3770636320        2.6353122910        0.8229418306
 H          1.4258101999        4.0590806377        0.1755641151
