26
 energy: -46.997876161719 gnorm: 0.000121843224 xtb: 6.4.1 (23d549d)
C        -3.14314279250000   -2.00166167290000   -0.57829586270000
C        -1.98936220300000   -2.06929718330000    0.07393552400000
C        -0.96370864170000   -1.02634293850000    0.06689609340000
C         0.37638122410000   -1.40684782040000    0.07393369180000
C         1.40741628020000   -0.48065744390000   -0.01143943310000
C         2.81857581340000   -0.97020607110000    0.06728561570000
O         3.67509942370000   -0.44690858540000    0.72133776700000
O         3.07950545960000   -2.08281346100000   -0.64663624730000
C         1.11914430650000    0.89191280390000   -0.11179774490000
C         2.18110648890000    1.88354012590000   -0.23065962370000
C         2.07007955660000    3.15399519290000    0.13804273320000
C        -0.22291264060000    1.26830939980000   -0.12827362050000
C        -1.25071108160000    0.34521435140000   -0.01506728120000
C        -2.63803131750000    0.90421215130000    0.06515240890000
O        -3.05832461530000    1.73034750590000   -0.69335462840000
O        -3.37553820550000    0.47741960900000    1.10789216890000
H        -3.84469316170000   -2.81755297240000   -0.56339597830000
H        -3.42512818780000   -1.14041575600000   -1.16118312460000
H        -1.72020513630000   -2.97489764250000    0.60410177360000
H         0.60688159670000   -2.46069282100000    0.16920582110000
H         2.31884147010000   -2.38139122680000   -1.16302428530000
H         3.12279307810000    1.52367975560000   -0.61929773590000
H         1.17422364560000    3.55493984260000    0.58166299360000
H         2.89256162650000    3.83864389430000    0.02792912140000
H        -0.48580139300000    2.30956266460000   -0.23196521930000
H        -2.92850385240000   -0.20629471900000    1.62415963900000
