  30
        -49.12514071
 C          4.8752222542       -0.9632598972        0.0547132622
 O          3.4572199232       -0.9703451238        0.0489055743
 C          2.8692163168        0.2395275072       -0.0050380202
 O          3.5128984831        1.2600512755       -0.0448767376
 C          1.3883617101        0.1430730674       -0.0083312635
 C          0.7914939948       -1.1157723788        0.0010847002
 C         -0.5831818318       -1.2928032392       -0.0035302729
 C         -1.1479932571       -2.6746174747        0.0051889440
 C         -1.3883305786       -0.1426249915       -0.0148772990
 C         -2.8691952628       -0.2390715044       -0.0225682992
 O         -3.5124015591       -1.2565252064       -0.1135570219
 O         -3.4570192226        0.9671063681        0.0857673345
 C         -4.8750583012        0.9608989892        0.0818759054
 C         -0.7916662970        1.1161744687       -0.0241495746
 C          0.5830951715        1.2932480119       -0.0223347704
 C          1.1472820599        2.6752195967       -0.0348313136
 H          5.1841612980       -2.0049857842        0.0843158436
 H          5.2494684961       -0.4268173517        0.9293996737
 H          5.2571510364       -0.4742411112       -0.8440836177
 H          1.4306184826       -1.9849885931        0.0108864403
 H         -0.3509269810       -3.4123445754        0.0532728330
 H         -1.7424575605       -2.8462914178       -0.8900729933
 H         -1.8156002846       -2.8102830164        0.8536142184
 H         -5.1837852932        1.9980405700        0.1834902647
 H         -5.2553229437        0.3637224985        0.9134005086
 H         -5.2511902544        0.5376965657       -0.8519941133
 H         -1.4309211298        1.9853155737       -0.0352090408
 H          0.3490560223        3.4132730938       -0.0303798282
 H          1.7693011230        2.8238750494       -0.9153239183
 H          1.7883594606        2.8335611729        0.8300381806
  30
        -49.12402944
 C          4.9455364270        0.7447434718        0.2591498413
 O          3.5302849885        0.8503335728        0.2702596521
 C          2.8630579771       -0.2531189096       -0.0953961642
 O          3.4280993145       -1.2720372565       -0.4150177690
 C          1.3825737363       -0.1208671393       -0.0530366373
 C          0.6857918862       -1.3238040178       -0.1471190118
 C         -0.6973045975       -1.3997821142       -0.1200565550
 C         -1.3673841711       -2.7292517987       -0.2195289385
 C         -1.4060227849       -0.1941637172       -0.0011429820
 C         -2.8889936463       -0.1735956707        0.0400390018
 O         -3.6091360517       -1.1404992092        0.0972973620
 O         -3.3809949104        1.0796712599        0.0071308506
 C         -4.7947156504        1.1841922160        0.0469794901
 C         -0.7094629869        1.0101148248        0.0813608108
 C          0.6746405939        1.0841274053        0.0601795157
 C          1.3293267694        2.4257386659        0.1470194532
 H          5.3250170330        1.7168596832        0.5635028260
 H          5.2997889889        0.4886616061       -0.7415827436
 H          5.2743381651       -0.0310911147        0.9537134593
 H          1.2704380544       -2.2273467903       -0.2435031102
 H         -0.6309712766       -3.5164718999       -0.3587608947
 H         -2.0713367867       -2.7428671585       -1.0490871780
 H         -1.9431170000       -2.9306825341        0.6819055104
 H         -5.0222088451        2.2463603770        0.0068815052
 H         -5.1832178166        0.7422585257        0.9670956914
 H         -5.2388390453        0.6638767443       -0.8043897117
 H         -1.2795899019        1.9222466924        0.1674514622
 H          0.5802622439        3.2130912740        0.1115113766
 H          2.0308800483        2.5682027245       -0.6717957990
 H          1.8893968820        2.5157542845        1.0757513822
  30
        -49.12325242
 C          5.0111642000        0.4866386567       -0.2838544765
 O          3.6108802175        0.7153492847       -0.2544874495
 C          2.8550297371       -0.3472301247        0.0538189221
 O          3.3323425692       -1.4314133784        0.2925209959
 C          1.3921207730       -0.0821319598        0.0536275307
 C          0.5916895351       -1.2225430923        0.0951639975
 C         -0.7932802307       -1.1815267954        0.0906227017
 C         -1.5581155284       -2.4645555423        0.1428933492
 C         -1.3921197350        0.0851153601        0.0469870614
 C         -2.8549679276        0.3500242532        0.0305377374
 O         -3.3320271905        1.4471992526        0.2007040705
 O         -3.6113539943       -0.7296308065       -0.2096582439
 C         -5.0116218135       -0.5028991133       -0.2519332428
 C         -0.5916123171        1.2261597642        0.0286263060
 C          0.7933199133        1.1849955676        0.0285071870
 C          1.5585774146        2.4687776294        0.0139177633
 H          5.2566736970       -0.2739311212       -1.0280262611
 H          5.3609995951        0.1441038746        0.6922911048
 H          5.4688424474        1.4379140836       -0.5431405156
 H          1.0982175686       -2.1764135693        0.1316432994
 H         -0.8784294224       -3.3000044284        0.2907582348
 H         -2.1070846691       -2.6176324123       -0.7842838835
 H         -2.2837662833       -2.4502520662        0.9529028824
 H         -5.4694678335       -1.4678757994       -0.4539985550
 H         -5.2574405302        0.2121876790       -1.0398064398
 H         -5.3609887234       -0.1030181342        0.7023313542
 H         -1.0981993883        2.1805706475        0.0130775874
 H          0.8791254430        3.3110612057        0.1173685471
 H          2.1081175743        2.5728598413       -0.9196789278
 H          2.2837219860        2.4967234345        0.8240446292
