  23
        -34.45623040
 C         -4.1626511782        0.0506639992        0.1099177799
 C         -3.1201905402       -0.7533169916       -0.0578410868
 C         -1.7131773013       -0.3707437898       -0.0393261206
 C         -0.7276827697       -1.3884176764       -0.0281928613
 C          0.6222941462       -1.1214756130       -0.0044346485
 C          1.5845669090       -2.2099964560        0.0113655413
 C          2.9045153933       -2.0641783341        0.0331853861
 C          1.0154770801        0.2405081044        0.0015889373
 N          2.2118485977        0.7986153145        0.0183945464
 C          2.0049798022        2.1296751436        0.0104303056
 C          0.6651075959        2.4216900894       -0.0128449393
 N          0.0219077376        1.2220249151       -0.0175632233
 C         -1.2980379778        0.9365240686       -0.0371756161
 H         -5.1693128070       -0.3286789356        0.0822927908
 H         -4.0633997782        1.1077810697        0.2867262309
 H         -3.2922995634       -1.8108525691       -0.2133958781
 H         -1.0573281402       -2.4174313567       -0.0339697035
 H          1.1420009703       -3.1992187259        0.0044883819
 H          3.3503686362       -1.0851622620        0.0401812137
 H          3.5609890965       -2.9179751152        0.0445702968
 H          2.8327492070        2.8113882100        0.0214104665
 H          0.1414081970        3.3552138059       -0.0248820264
 H         -1.9748870877        1.7760636764       -0.0601548050
  23
        -34.45519499
 C         -4.0557308586       -0.1764692470        0.1015474579
 C         -2.9491349362       -0.8931892015       -0.0503638387
 C         -1.5776704997       -0.3967232209       -0.0335169161
 C         -0.5155092071       -1.3354113456       -0.0212476639
 C          0.8042978230       -0.9505991863       -0.0003815862
 C          1.9449334707       -1.8534272295        0.0168769164
 C          1.8976605676       -3.1804266379        0.0267869367
 C          1.0767771252        0.4384561395        0.0014155002
 N          2.2321046820        1.0764494078        0.0144871000
 C          1.9278654176        2.3886514936        0.0036717346
 C          0.5689096370        2.5841608976       -0.0171305734
 N          0.0138615300        1.3415030921       -0.0178265230
 C         -1.2760631698        0.9424596054       -0.0346944654
 H         -5.0269742682       -0.6391567118        0.0758627149
 H         -4.0467225123        0.8877939180        0.2623213475
 H         -3.0333527315       -1.9632914907       -0.1916653052
 H         -0.7671098397       -2.3842973262       -0.0249918684
 H          2.8961552070       -1.3396517678        0.0229249404
 H          0.9733975290       -3.7335073527        0.0226554610
 H          2.7981873482       -3.7693675473        0.0400868636
 H          2.7029605765        3.1297589966        0.0110224686
 H         -0.0195040320        3.4783425593       -0.0300704018
 H         -2.0241243552        1.7192658054       -0.0578856051
