  24
        -42.78272325
 C          1.6443781605       -2.3888909582       -0.0421140485
 C          0.8209764113       -1.1332412460       -0.0146626736
 C         -0.5642728012       -1.2292302211       -0.0061576148
 C         -1.3830183778       -0.1050048412        0.0077412075
 C         -2.8655627965       -0.2943032296        0.0785301205
 O         -3.5906448050        0.3338892465        0.7957179538
 O         -3.3570032299       -1.2604750491       -0.7217427252
 C         -0.8201493667        1.1774082839       -0.0136882011
 C         -1.6691188313        2.4054828172       -0.0189251878
 C          0.5619417503        1.2714947866       -0.0562012105
 C          1.3814026406        0.1471017537       -0.0326818002
 C          2.8567416131        0.3987342285       -0.0551793466
 O          3.3751163456        1.1775432360       -0.8027170266
 O          3.5846693372       -0.2802722505        0.8521554350
 H          1.1222623969       -3.1632951462       -0.6004648322
 H          1.8022121485       -2.7717013813        0.9681489413
 H          2.6121026654       -2.2261880888       -0.5102491479
 H         -1.0092200768       -2.2160418383        0.0247493792
 H         -2.6750474189       -1.6651770442       -1.2744680178
 H         -2.2772908959        2.4416916982        0.8826553901
 H         -2.3523907161        2.3967979503       -0.8666799797
 H         -1.0515769468        3.2976059168       -0.0725782002
 H          1.0341109522        2.2416925227       -0.0989896495
 H          3.0392942717       -0.8439093100        1.4161245965
  24
        -42.78236318
 C          1.6409319141       -2.3971607577        0.2758088945
 C          0.8221315030       -1.1449864083        0.1512027216
 C         -0.5612831268       -1.2346883837        0.1919812417
 C         -1.3826135314       -0.1233439991        0.0361382275
 C         -2.8553701961       -0.3825066467        0.0985493535
 O         -3.3530907142       -1.1081283219        0.9121431410
 O         -3.6046044583        0.2148265921       -0.8460018431
 C         -0.8221486484        1.1449359092       -0.1517087926
 C         -1.6409240199        2.3970721694       -0.2766684209
 C          0.5612907919        1.2346428884       -0.1924123547
 C          1.3826189487        0.1233475986       -0.0363976984
 C          2.8553872085        0.3826488207       -0.0981298797
 O          3.3534715882        1.1086714615       -0.9110686286
 O          3.6042446128       -0.2152614868        0.8463886287
 H          1.0983478290       -3.2332387819       -0.1599171207
 H          1.8181386108       -2.6425652145        1.3247903546
 H          2.5980858184       -2.3086656839       -0.2328732425
 H         -1.0313812339       -2.1953808626        0.3427149292
 H         -3.0753889642        0.7425906535       -1.4583517987
 H         -2.5983817837        2.3085234013        0.2313829023
 H         -1.8174811594        2.6424763442       -1.3257478097
 H         -1.0987008412        3.2331940736        0.1594057260
 H          1.0313734214        2.1953362301       -0.3431993426
 H          3.0748061077       -0.7435259542        1.4581031711
  24
        -42.78206939
 C          1.6344989858       -2.3712454111       -0.3688458382
 C          0.8194436668       -1.1260183654       -0.1637120619
 C         -0.5654623339       -1.2214094097       -0.1388540264
 C         -1.3852701252       -0.1049220146       -0.0043589186
 C         -2.8696192562       -0.2886184675       -0.0111437793
 O         -3.6396876196        0.4481053117       -0.5578604699
 O         -3.3161289828       -1.3759578527        0.6498971236
 C         -0.8193190531        1.1747528045        0.0774019199
 C         -1.6587301537        2.4040707168        0.1808194392
 C          0.5637445946        1.2672736989        0.0639302326
 C          1.3834151239        0.1467556349       -0.0315739517
 C          2.8574165339        0.4057619392       -0.0206843571
 O          3.3659668918        1.3072537165       -0.6228609115
 O          3.5982428815       -0.4132303471        0.7515293354
 H          1.0952738579       -3.0607112315       -1.0152973074
 H          1.8100060023       -2.8866403989        0.5780677020
 H          2.5932441414       -2.1533677159       -0.8328121625
 H         -1.0104747240       -2.1995847267       -0.2739934109
 H         -2.6031582576       -1.8707538307        1.0749958648
 H         -2.3693105606        2.3226966933        1.0013000097
 H         -2.2397861411        2.5314463010       -0.7305245843
 H         -1.0356683121        3.2811292413        0.3322195507
 H          1.0384759883        2.2353012031        0.1244775350
 H          3.0634331379       -1.0755126341        1.2076790332
  24
        -42.78194469
 C          1.6320182427       -2.2965332070        0.7691695681
 C          0.8205827573       -1.1002467621        0.3627739099
 C         -0.5631959929       -1.1866148574        0.3875282618
 C         -1.3844203598       -0.1132113947        0.0575134870
 C         -2.8552728571       -0.3849524695        0.0983022996
 O         -3.3642496641       -1.0809353230        0.9306909754
 O         -3.5904259740        0.1563677570       -0.8906587165
 C         -0.8209278947        1.1324724186       -0.2432016070
 C         -1.6326865301        2.3699754203       -0.4968526754
 C          0.5628385700        1.2214654311       -0.2582133697
 C          1.3842429812        0.1286810348       -0.0001414374
 C          2.8552714079        0.3860982681       -0.0937127269
 O          3.3609977594        1.4065371613        0.2794284370
 O          3.5945976483       -0.5774780310       -0.6737263695
 H          1.0837849879       -2.8690831154        1.5141130775
 H          2.5899775797       -2.0105757265        1.1972812981
 H          1.8058179078       -2.9601071248       -0.0806908262
 H         -1.0380376506       -2.1136201292        0.6737929530
 H         -3.0559750798        0.6695051351       -1.5105246460
 H         -2.5935082942        2.3362843437        0.0114860604
 H         -1.8005661924        2.5170251264       -1.5659554948
 H         -1.0876908241        3.2398545594       -0.1368533332
 H          1.0374754778        2.1675089918       -0.4738125596
 H          3.0625889295       -1.3332335695       -0.9547271177
