24
 energy: -41.280233541286 gnorm: 0.000148542903 xtb: 6.4.1 (23d549d)
C         3.58470732260000   -2.53027585240000   -0.06386343790000
C         3.29893518620000   -1.23780949290000    0.03889894290000
C         1.96861593810000   -0.64011326500000    0.03649925620000
C         1.86025851160000    0.75021647950000    0.07740085030000
C         0.64017314090000    1.43518007400000    0.08006971070000
C         0.55693278070000    2.89138547720000    0.13293021470000
C         1.51335507540000    3.73365687810000   -0.23595357680000
C        -0.50490850750000    0.64511436550000    0.04779833530000
C        -0.41986047920000   -0.75698331200000    0.00861512840000
C         0.79799275720000   -1.40636623850000    0.00190942730000
C        -1.78258064660000   -1.29746163980000   -0.02287896370000
O        -2.15789420980000   -2.44013494620000   -0.05325425700000
C        -2.69121646580000   -0.03849775620000   -0.00876058950000
O        -3.89242790360000    0.02060661490000   -0.03060716930000
N        -1.83726050860000    1.03112656360000    0.03416344560000
H         4.60335994000000   -2.87731303090000   -0.05428843170000
H         2.83007949240000   -3.29085181690000   -0.16399123650000
H         4.11092193050000   -0.52686001360000    0.12927207440000
H         2.76854319890000    1.33226627430000    0.12688312930000
H        -0.38056520720000    3.28896332580000    0.50116991090000
H         2.45536818210000    3.39945880240000   -0.63550062140000
H         1.37968190480000    4.79897965850000   -0.16480501650000
H         0.82490762620000   -2.48317861160000   -0.02344213810000
H        -2.15259216500000    1.98880035030000    0.03687266500000
