  26
        -40.95965597
 C         -4.0999125929        1.7297613154        0.2253092235
 C         -3.3985942431        0.7646145690       -0.3539691658
 C         -1.9693052346        0.5337062511       -0.1496218258
 C         -1.1145078439        1.6258789395        0.0145145147
 C          0.2507351879        1.4576156203        0.1356237394
 C          0.7725032863        0.1793976585        0.0696241916
 S          2.5465388365       -0.0533996002        0.1510561272
 C          3.0596606071        0.1153641567       -1.5869338115
 O          3.1310013791        1.0280817500        0.8965377363
 O          2.8268935131       -1.3998927492        0.5706856628
 C         -0.0427786702       -0.9171423437       -0.0948460379
 C         -1.4267544256       -0.7654472853       -0.1826661457
 C         -2.2407269275       -1.9757991732       -0.2760564580
 C         -3.4279105006       -2.1541902451        0.2880649789
 H         -5.1474649428        1.8669147230        0.0191275928
 H         -3.6641887811        2.4010120303        0.9464132147
 H         -3.8845836671        0.0809155534       -1.0385665650
 H         -1.5351502101        2.6198264910        0.0260724918
 H          0.9184897717        2.2914929588        0.2828061938
 H          2.7785683694        1.1037814829       -1.9257339539
 H          2.5624939728       -0.6564444240       -2.1595581380
 H          4.1342318239       -0.0110460536       -1.6280961518
 H          0.4081859571       -1.8977705592       -0.1171290907
 H         -1.7735401068       -2.7954429486       -0.8080056424
 H         -3.9022441096       -1.3893836300        0.8793180437
 H         -3.9552890454       -3.0889035783        0.2003522955
