19
 energy: -35.168109337854 gnorm: 0.000039738916 xtb: 6.4.1 (23d549d)
C        -4.73261355520000   -0.44193294440000   -0.00939224750000
C        -3.69957566250000    0.39215829380000    0.00672013510000
C        -2.29001709810000    0.02533361990000    0.00287345670000
C        -1.82049323130000   -1.29271488210000   -0.00824610780000
C        -0.46119453580000   -1.51750329690000   -0.01099351950000
C         0.42580387440000   -0.43535344780000   -0.00279563480000
C         1.85268216740000   -0.69552488820000   -0.00594901470000
C         2.84563781760000    0.18271084750000   -0.00012672210000
F         2.76449717430000    1.50579881940000    0.00995860210000
F         4.12803852410000   -0.17298041400000   -0.00377808330000
C        -0.14847478770000    0.84238535840000    0.00842633350000
N        -1.44319117310000    1.05743688090000    0.01129966350000
H        -5.74480206930000   -0.07584830780000   -0.00530773830000
H        -4.62056716950000   -1.51289852680000   -0.02778679400000
H        -3.86007018920000    1.46142008830000    0.02365062150000
H        -2.50837067670000   -2.12279317330000   -0.01407900110000
H        -0.07513746660000   -2.52749505630000   -0.01936323840000
H         2.15377882930000   -1.73373452780000   -0.01405837370000
H         0.46174322420000    1.73411225770000    0.01559439440000
