26
 energy: -37.098542963090 gnorm: 0.000046619383 xtb: 6.4.1 (23d549d)
C         3.55045682940000   -0.50148111830000   -0.07268623300000
C         2.31538749170000   -0.81009982240000   -0.44425003630000
C         1.12933601520000    0.01471206850000   -0.22402893760000
C         1.21718514750000    1.39453189770000   -0.08785797060000
C         0.08141360220000    2.16999923640000    0.12371681200000
N         0.18866005730000    3.53135841810000    0.33984519380000
C        -1.15620205600000    1.53781677790000    0.18587882800000
C        -1.28537452550000    0.16078976810000    0.02716413510000
C        -2.63046547840000   -0.41055410530000    0.08659597040000
C        -3.04117782860000   -1.51765134900000   -0.51712836620000
C        -0.12938258080000   -0.60319937720000   -0.17709149980000
O        -0.20306498580000   -1.98384107280000   -0.30971089960000
C        -0.07533945500000   -2.67154127570000    0.91418371600000
H         4.37810215260000   -1.16208762140000   -0.26769275320000
H         3.78548975370000    0.41098057720000    0.44959767390000
H         2.12067706390000   -1.75535214200000   -0.93444686090000
H         2.18044720680000    1.87704414850000   -0.15944842250000
H         1.02966105120000    3.96721745030000   -0.00280099910000
H        -0.64830490840000    4.07050878520000    0.18675722740000
H        -2.04444319940000    2.13377137700000    0.34461627510000
H        -3.33881684330000    0.17928690720000    0.65797389760000
H        -2.38056268970000   -2.11687142380000   -1.11789963270000
H        -4.06040423670000   -1.85658188140000   -0.42872527050000
H        -0.13211081880000   -3.73313825570000    0.67819484950000
H        -0.88587318480000   -2.40724708910000    1.60303949310000
H         0.88574373350000   -2.45372594430000    1.39500399880000
