  17
        -33.66225692
 C         -1.9246801194        2.5273929539       -0.3591797693
 C         -2.3932662577        1.3942337204        0.1486001449
 C         -1.7368680597        0.1044002700        0.0955292376
 C         -2.4067423889       -1.1499010161        0.0500193634
 C         -1.4383626920       -2.1005088112       -0.0212913155
 O         -0.2198297203       -1.5440212854       -0.0082309820
 C         -0.3854447915       -0.2032499297        0.0642158306
 C          0.7636057590        0.6503468514        0.1761947271
 C          2.0251871264        0.2583329628        0.0331201372
 F          2.4526552605       -0.9568717767       -0.2736306781
 F          3.0664933190        1.0761197065        0.1708730954
 H         -2.4823222033        3.4450872477       -0.2855435622
 H         -0.9890779667        2.5778830957       -0.8888830732
 H         -3.3691512414        1.3796866639        0.6175772147
 H         -3.4661186965       -1.3046999928        0.0543647956
 H         -1.4866169203       -3.1698058205       -0.0804077773
 H          0.5853007478        1.6844480230        0.4195437250
  17
        -33.65952253
 C         -1.0287055923        2.2817400677       -0.0309223251
 C         -1.5716079144        1.2234258035       -0.6161400623
 C         -1.3780794665       -0.1517244303       -0.1967282108
 C         -2.4043915733       -1.1386742331       -0.2087846712
 C         -1.8742042492       -2.2556933370        0.3523832520
 O         -0.5973675960       -2.0520426489        0.7026505150
 C         -0.2772086446       -0.7770501462        0.3620228616
 C          1.0927083391       -0.4016450445        0.6053508195
 C          1.8061464221        0.5171494264       -0.0312785590
 F          1.4123967210        1.3002063214       -1.0249502711
 F          3.0754233789        0.7870993847        0.2661480579
 H         -1.2376947989        3.2808487066       -0.3700521729
 H         -0.3663787751        2.1889934007        0.8131415906
 H         -2.2720148712        1.3527855871       -1.4309486948
 H         -3.4028541909       -1.0077106859       -0.5723520345
 H         -2.2878527522       -3.2249270721        0.5498167817
 H          1.6118620083       -0.9892633327        1.3483339377
