  17
        -33.66225692
 C         -1.9246801194        2.5273929539       -0.3591797693
 C         -2.3932662577        1.3942337204        0.1486001449
 C         -1.7368680597        0.1044002700        0.0955292376
 C         -2.4067423889       -1.1499010161        0.0500193634
 C         -1.4383626920       -2.1005088112       -0.0212913155
 O         -0.2198297203       -1.5440212854       -0.0082309820
 C         -0.3854447915       -0.2032499297        0.0642158306
 C          0.7636057590        0.6503468514        0.1761947271
 C          2.0251871264        0.2583329628        0.0331201372
 F          2.4526552605       -0.9568717767       -0.2736306781
 F          3.0664933190        1.0761197065        0.1708730954
 H         -2.4823222033        3.4450872477       -0.2855435622
 H         -0.9890779667        2.5778830957       -0.8888830732
 H         -3.3691512414        1.3796866639        0.6175772147
 H         -3.4661186965       -1.3046999928        0.0543647956
 H         -1.4866169203       -3.1698058205       -0.0804077773
 H          0.5853007478        1.6844480230        0.4195437250
