  29
        -37.04225852
 C         -3.7405538617       -1.9781638829       -0.4443385654
 C         -2.5696829000       -2.0679641873        0.1800419211
 C         -1.5910883794       -1.0187372424        0.2534645622
 C         -0.3735438451       -1.0646228687        0.8780417397
 C          0.3912548182        0.1159946366        0.7680044132
 C          1.7092727360        0.2468367199        1.4677484259
 C          2.7769713122       -0.7438733565        0.9816647222
 C          3.3774444132       -0.4364716713       -0.3901857261
 C          2.4212459279       -0.6778095019       -1.5519146386
 C         -0.2640800128        1.0922595491        0.0515934469
 C          0.0899127809        2.4436607927       -0.3148646594
 C          1.3081223589        2.9311456358       -0.5289265659
 S         -1.8331874888        0.5370328546       -0.4768247300
 H         -4.4350975912       -2.7989477779       -0.4670422652
 H         -4.0362338559       -1.0752691635       -0.9529242030
 H         -2.2864521932       -2.9830137927        0.6855140230
 H         -0.0343681544       -1.9330123380        1.4165098386
 H          1.5322321996        0.0427144713        2.5294382807
 H          2.0824265583        1.2667252367        1.3891052096
 H          2.3538320802       -1.7502754808        0.9645445868
 H          3.5876566564       -0.7400444524        1.7152482819
 H          4.2544737355       -1.0759856115       -0.5229539811
 H          3.7283405832        0.5980657429       -0.4106737923
 H          2.0248071193       -1.6903898043       -1.5131073862
 H          2.9423165920       -0.5504561529       -2.4985618863
 H          1.5878481758        0.0174069173       -1.5270211597
 H         -0.7655392679        3.0917330632       -0.4668911567
 H          2.1983511737        2.3332858739       -0.4591873435
 H          1.4473673798        3.9618262031       -0.8064951973
