  47
        -61.78195583
 C         -0.3660498450        3.8533136777        2.5439380843
 C         -0.4197880198        2.4545120540        1.9414827541
 C         -1.6303153148        2.2326673012        1.0339006584
 C         -1.6452101861        3.0791629921       -0.2402596597
 C         -0.5125663638        2.7935136918       -1.2285518479
 C         -0.6233897946        1.4266963131       -1.9165806755
 N         -0.2128597226        0.3361234846       -1.0588628195
 C         -0.9570549645       -0.8440586957       -1.0315244179
 C         -1.7418755281       -1.2526951571       -2.1076392872
 C         -2.5017891428       -2.4078724666       -2.0422926471
 C         -2.4854824453       -3.2174862973       -0.9174707833
 C         -3.3097864290       -4.4652667987       -0.8300326109
 C         -1.6733273853       -2.8392004270        0.1447898157
 C         -0.9325496116       -1.6744136732        0.0927625658
 S          0.0366740579       -1.2228606252        1.5070096046
 C          1.3427953980       -0.3740191777        0.6606080611
 C          2.6083654260       -0.3924032896        1.2160067025
 C          3.6552470496        0.3051216927        0.6283552247
 C          5.0127186527        0.3270670617        1.2615779675
 C          3.3967208484        0.9964400169       -0.5464435169
 C          2.1368155490        0.9985943966       -1.1173444711
 C          1.0729996453        0.3255029322       -0.5183332401
 H          0.4584589779        3.9270273450        3.2496421370
 H         -1.2905089145        4.0767736554        3.0726636483
 H         -0.2182599179        4.6074866122        1.7747710881
 H         -0.4689509439        1.7223831714        2.7507973067
 H          0.5034652464        2.2612244906        1.3928138399
 H         -2.5346800199        2.4642809245        1.6032036828
 H         -1.6803659801        1.1771060107        0.7667978071
 H         -1.6014624218        4.1350240282        0.0340675928
 H         -2.6006464703        2.9183897244       -0.7477415391
 H          0.4486899397        2.8812652541       -0.7237363458
 H         -0.5442754893        3.5558299691       -2.0111509903
 H         -0.0466030738        1.4362511164       -2.8527661701
 H         -1.6718206871        1.2648772070       -2.1731036556
 H         -1.7597760927       -0.6688637391       -3.0147685187
 H         -3.1096993564       -2.6825689565       -2.8921353390
 H         -3.8110790615       -4.6656619392       -1.7734870178
 H         -4.0649173171       -4.3654010331       -0.0507275875
 H         -2.6832657444       -5.3194447667       -0.5778495090
 H         -1.6278049731       -3.4446216184        1.0377870171
 H          2.7645310701       -0.9424166904        2.1320002992
 H          5.1950222030       -0.5896492495        1.8172444147
 H          5.0873406219        1.1636051215        1.9575992988
 H          5.7887217762        0.4453593388        0.5086982063
 H          4.1932059962        1.5417023026       -1.0319708788
 H          1.9839476908        1.5346484561       -2.0403291377
