  23
        -36.36045139
 C         -4.2177425796       -1.4100118831        0.1020665263
 C         -3.3902742844       -0.3726412931        0.1117885421
 C         -1.9360790278       -0.4255635862        0.0084172837
 C         -1.2079433837       -1.6013966950       -0.2014895606
 C          0.1702604666       -1.5298637091       -0.2076554011
 C          0.8040132416       -0.3019294064       -0.0394465277
 C          2.2947095905       -0.2902447909        0.0478606164
 N          2.7777855378        0.3127160405        1.1635932784
 O          3.0121391850       -0.8389018983       -0.7596485041
 C         -0.0066379906        0.8415787528        0.0583704782
 C          0.5100332133        2.2114843072        0.0654590648
 C          1.6049982508        2.6125761363       -0.5655281361
 N         -1.3284550636        0.7520981864        0.1156840649
 H         -5.2825730865       -1.2754892237        0.1847841233
 H         -3.8779946616       -2.4281708715        0.0140513155
 H         -3.7747673411        0.6333847317        0.2103821270
 H         -1.7074155044       -2.5457734003       -0.3418381522
 H          0.7747495154       -2.4167082078       -0.3315624468
 H          2.1836607818        0.8382672159        1.7791394572
 H          3.7755589180        0.3821642065        1.2783907338
 H         -0.1349488292        2.9226828030        0.5635405391
 H          2.2281470350        1.9330981441       -1.1232239665
 H          1.9087615606        3.6456662837       -0.5626910103
