  43
        -70.92347598
 C         -1.9933921318        3.8570238216       -0.2206725928
 C         -2.8778675811        2.6188852323       -0.0681802668
 C         -3.8238778259        2.4847897182       -1.2607310730
 O         -1.9322917993        1.5221289011       -0.0505691941
 C         -2.3550667939        0.2598684558        0.0823033057
 N         -1.2812286722       -0.6046160654        0.0948529595
 C          0.0472896480       -0.1429422680        0.2042544751
 C          0.4177746642        0.7731800644        1.1844891569
 C          1.7250232035        1.2007806832        1.2714363496
 C          2.7043937063        0.7225243609        0.3967301853
 C          4.0612583164        1.2181330614        0.5503776963
 C          5.1390464873        0.9081187396       -0.1557757462
 F          5.2355190947        0.0652603911       -1.1772000509
 F          6.3396856545        1.4341249778        0.0826579006
 C          2.3257010938       -0.2086962120       -0.5731028328
 C          1.0171415890       -0.6334931244       -0.6665857102
 C         -1.4870944929       -2.0014270107       -0.0117497050
 C         -2.4399206500       -2.5264965235       -0.8761394482
 C         -2.6137008145       -3.8963595364       -0.9576923681
 C         -1.8358287930       -4.7504055746       -0.1949503286
 C         -0.8804370517       -4.2272174938        0.6603002520
 C         -0.7069431259       -2.8597190429        0.7575877164
 O         -3.5014191659       -0.1031257298        0.1665752346
 C         -3.6553374454        2.6721415769        1.2464535005
 H         -1.4161151345        3.7903168985       -1.1389333131
 H         -1.3012180095        3.9266954810        0.6143126191
 H         -2.6079964960        4.7516101546       -0.2496193462
 H         -3.2517964588        2.3971798892       -2.1821163028
 H         -4.4601165675        3.3630841016       -1.3228940266
 H         -4.4488468920        1.6032707776       -1.1478554511
 H         -0.3211002068        1.1437506369        1.8774736846
 H          2.0003412537        1.9114750513        2.0369103534
 H          4.2252441506        1.9357854909        1.3414702641
 H          3.0517097476       -0.6025182630       -1.2648656739
 H          0.7347521989       -1.3532957169       -1.4203575243
 H         -3.0465761494       -1.8655871823       -1.4734292339
 H         -3.3581004227       -4.2977016745       -1.6289674736
 H         -1.9730696469       -5.8188431328       -0.2656624849
 H         -0.2707893850       -4.8857406172        1.2609961315
 H          0.0329785853       -2.4499403936        1.4295263472
 H         -4.3032378342        3.5440390939        1.2517472918
 H         -2.9679402534        2.7403599222        2.0873066788
 H         -4.2642112353        1.7794445360        1.3604132836
