82
 energy: -97.866491658294 gnorm: 0.000060981402 xtb: 6.4.1 (23d549d)
C        -2.88596085600000    3.00634941160000    2.83787830720000
C        -1.91755165180000    2.99559663010000    1.92844587670000
C        -1.93615619960000    2.30930457600000    0.64546162240000
C        -3.09717366740000    1.76351275370000    0.10545293340000
C        -3.11569217700000    1.08620342290000   -1.10467617170000
O        -4.23040319300000    0.49128339860000   -1.61967024910000
C        -5.34629234050000    0.22666271700000   -0.79750423920000
C        -5.10609285160000   -0.76497250990000    0.34582639580000
C        -4.70727873980000   -2.17227252240000   -0.10620690800000
C        -3.28752590730000   -2.29702987460000   -0.66561442140000
C        -2.20533073180000   -1.93411600400000    0.34946293670000
C        -0.79877642140000   -2.12699655070000   -0.21660992480000
C         0.26570982760000   -1.39791853740000    0.60387216890000
C         0.44554048080000   -1.96654874820000    2.00959845420000
C         1.44091788980000   -1.16728077300000    2.85241421180000
C         0.89444380560000    0.18601567810000    3.29371150070000
C        -1.92570687850000    0.99302144640000   -1.85358148140000
C        -1.81025037520000    0.34471364200000   -3.15184914730000
C        -2.78644689610000   -0.00792315210000   -3.98145705020000
C        -0.76229306990000    1.54157847190000   -1.31127894200000
C        -0.73697072360000    2.17691433370000   -0.08230360700000
O         0.39488575630000    2.67857385540000    0.49497187590000
C         1.64147906260000    2.39587860510000   -0.10512544770000
C         2.74166475860000    2.86606641050000    0.84276208090000
C         4.12012236200000    2.36275310050000    0.41269768910000
C         4.33670086500000    0.88853966750000    0.75251853210000
C         5.64743847310000    0.35641066490000    0.17886938830000
C         5.96901442900000   -1.07221662950000    0.62386680450000
C         4.90673479510000   -2.12028995590000    0.28372153760000
C         4.62116056800000   -2.23973034090000   -1.21156212280000
C         3.59923958270000   -3.33035524490000   -1.53932462630000
C         4.13275218140000   -4.74204770200000   -1.32624464680000
H        -2.77465278410000    3.54549809670000    3.76278953530000
H        -3.81864542670000    2.48263989700000    2.71156543540000
H        -0.99552885410000    3.52221977570000    2.13211979960000
H        -4.01304015030000    1.88669882460000    0.65934970420000
H        -6.08306658790000   -0.19117717370000   -1.49077796910000
H        -5.75674578910000    1.16261741980000   -0.39239004250000
H        -6.04519365920000   -0.83119218530000    0.90109456120000
H        -4.34878336700000   -0.37383911940000    1.02429895670000
H        -5.41509408480000   -2.51157086610000   -0.86658866010000
H        -4.80228805580000   -2.84053967600000    0.75417230220000
H        -3.18418079280000   -1.66647083770000   -1.54837053980000
H        -3.13867120570000   -3.33254072270000   -0.98372190260000
H        -2.33631167710000   -2.54646475440000    1.24432186310000
H        -2.30866670750000   -0.88709622440000    0.63859434480000
H        -0.77972417830000   -1.73028874260000   -1.23462717030000
H        -0.56130447430000   -3.19215774850000   -0.27116011400000
H        -0.01786817440000   -0.34644380620000    0.66945929310000
H         1.22225126990000   -1.45526044980000    0.07559770920000
H         0.79237024250000   -3.00034114560000    1.92905390340000
H        -0.51558210420000   -1.97774793920000    2.52536139140000
H         2.36258192280000   -1.01995017870000    2.28488884580000
H         1.69413348080000   -1.74965744250000    3.74210583840000
H         0.67300269970000    0.82331299810000    2.44245434960000
H         1.61943509800000    0.69854159400000    3.92302099880000
H        -0.02208964270000    0.05731860120000    3.86580277420000
H        -0.78488294810000    0.16362048560000   -3.45675564880000
H        -3.82283908610000    0.16248285210000   -3.75933420230000
H        -2.56340370150000   -0.47839897930000   -4.92511223430000
H         0.14295148330000    1.45542210100000   -1.89217660050000
H         1.72932381150000    2.91472757810000   -1.07033315190000
H         1.72917198210000    1.31588343930000   -0.27980641380000
H         2.51291996430000    2.50320380230000    1.84601376530000
H         2.73133954350000    3.95665856320000    0.87288705210000
H         4.88805599730000    2.95682757840000    0.91210499070000
H         4.23838722120000    2.51153063860000   -0.66360027180000
H         3.50824396110000    0.30201435320000    0.35577673150000
H         4.34085696450000    0.76903338710000    1.83840511260000
H         6.46533154710000    1.00544077940000    0.50270922040000
H         5.61060698280000    0.40404512760000   -0.91110427240000
H         6.11613075850000   -1.07531430760000    1.70710377420000
H         6.91478946690000   -1.36987587510000    0.16386212110000
H         3.97828942720000   -1.89091304980000    0.80989711860000
H         5.26067005140000   -3.08213144580000    0.65945860530000
H         5.55309682970000   -2.44748387230000   -1.74290815860000
H         4.23490403770000   -1.28743647190000   -1.58035505490000
H         3.30017462470000   -3.22438514340000   -2.58519221710000
H         2.70644922430000   -3.18512936740000   -0.92630668400000
H         5.03949827600000   -4.89765793620000   -1.90714815390000
H         3.39383987480000   -5.47526301100000   -1.64191916620000
H         4.36004834260000   -4.92218298800000   -0.27879987430000
