  24
        -37.66744431
 C          3.8314995201        0.6709075400        0.4159696552
 C          3.1845645799       -0.4868849591        0.3375026961
 C          1.8006880777       -0.6552911217       -0.0330771604
 N          1.3561684261       -1.8318962663       -0.5392728140
 N          0.0661354368       -1.8060747193       -0.8552696140
 C         -0.3619889290       -0.5924222960       -0.5373618289
 N         -1.6929571158       -0.2513187421       -0.7589204094
 C         -2.6408551219        0.1128870043        0.1581218306
 C         -2.1628435047        0.3012540953        1.5745663206
 O         -3.7895417682        0.2726055365       -0.1888638108
 C          0.6945892725        0.2003472861       -0.0153865109
 C          0.6670744956        1.5771696538        0.4334087484
 C         -0.1534694480        2.5093219621       -0.0353537839
 H          4.8675845770        0.7110538238        0.7040113748
 H          3.3602635237        1.6077108693        0.1776532303
 H          3.7124624601       -1.4125082737        0.5368577154
 H          1.9001643584       -2.6590818234       -0.7276377677
 H         -2.0741590258       -0.5794726907       -1.6381584963
 H         -1.4601077518       -0.4809916411        1.8503169953
 H         -3.0231639434        0.2815304698        2.2375096642
 H         -1.6663673521        1.2648566016        1.6684155329
 H          1.3921913318        1.8244740911        1.1990173602
 H         -0.8733403056        2.2993361853       -0.8079751888
 H         -0.1262071762        3.5198254457        0.3349173373
