  25
        -33.03316480
 C         -3.8778312733        1.1503876544       -0.4265415060
 C         -3.2782453641        0.0536079645        0.0236272394
 C         -1.8472158475       -0.1959651050        0.0969643247
 C         -1.3919704604       -1.4435221238        0.5336435720
 C         -0.0486200329       -1.7326178491        0.5664734526
 C          0.9161448852       -0.7886565347        0.1956266529
 N          2.2420934878       -1.1674280813        0.1956809892
 C          3.1956675462       -0.7012935892       -0.7859234127
 C          0.4791986066        0.5054040199       -0.1492893428
 C          1.3749950455        1.6485929749       -0.3437302019
 C          2.3918372726        1.9491652478        0.4523896325
 C         -0.8856094193        0.7549120286       -0.2313871840
 H         -4.9509512726        1.2356852332       -0.4412237498
 H         -3.3340283661        2.0020604984       -0.7975074433
 H         -3.8923980399       -0.7672158086        0.3760370999
 H         -2.1070375928       -2.2007236623        0.8232064520
 H          0.2806139273       -2.7167750670        0.8743354672
 H          2.3710938202       -2.1312642005        0.4667130829
 H          2.6855143096       -0.2517124821       -1.6396452192
 H          3.7990928937       -1.5367257089       -1.1408157597
 H          3.8635874700        0.0528926278       -0.3588468948
 H          1.0996641894        2.3266177818       -1.1435047059
 H          2.6521740880        1.3275632713        1.2925528027
 H          2.9847076448        2.8362503696        0.3052947212
 H         -1.1974981175        1.7465919969       -0.5238624647
