  15
        -20.15731286
 C         -0.6529573204        2.1315893961       -0.0001470027
 C         -0.2161194322        0.7082928522        0.0002036050
 C         -0.9507883034       -0.4388772752        0.0000958469
 C         -2.4426041175       -0.5385810027        0.0000085759
 C         -0.1322255139       -1.6036842452       -0.0000176962
 C          1.1915647882       -1.3294357002       -0.0001799800
 S          1.4912313180        0.3646065724        0.0000627289
 H         -1.7369787025        2.2055832413        0.0087279801
 H         -0.2773980700        2.6448230906       -0.8853114621
 H         -0.2625359405        2.6496724770        0.8756207047
 H         -2.9120153248        0.4405726254        0.0011032469
 H         -2.7790891822       -1.0852167171        0.8804584925
 H         -2.7790800724       -1.0830634066       -0.8817800595
 H         -0.5354689081       -2.6010919732       -0.0000145782
 H          2.0196603209       -2.0096138502       -0.0003628841
