  28
        -47.56103929
 C          0.7464565573       -3.8982189162       -0.1386262310
 C          1.4513248941       -2.7739918475       -0.0894441715
 C          0.9159881223       -1.4207822501       -0.0280536800
 C         -0.4390110597       -1.1276850400       -0.0140684506
 C         -0.9188900988        0.1783635863        0.0461522224
 C         -2.3662353283        0.4194800587        0.0373303657
 O         -2.9032189785        1.5130478822        0.0603599589
 O         -3.0882276189       -0.7120750887       -0.0059834326
 C         -4.4963967924       -0.5455181394       -0.0194973453
 C         -0.0110620549        1.2649969306        0.0962543956
 N         -0.4565921776        2.5351585947        0.1447173691
 C          1.3802709899        0.9923154420        0.0944218236
 C          2.3415122253        2.0951285671        0.2078204433
 C          3.4806907586        2.1899929455       -0.4619207272
 C          1.7930428740       -0.3261563134        0.0273495979
 F          3.1184471138       -0.5846429256        0.0520407646
 H          1.2338054086       -4.8566676890       -0.1819784269
 H         -0.3297383684       -3.9153020171       -0.1364555193
 H          2.5317733666       -2.8323502741       -0.0929207896
 H         -1.1571987720       -1.9286942045       -0.0531883745
 H         -4.9195283974       -1.5466274875       -0.0336637014
 H         -4.8055398174        0.0141070227       -0.9050746854
 H         -4.8245463124       -0.0022546381        0.8693779665
 H         -1.4564357432        2.6796311768        0.0981703147
 H          0.1814299195        3.3024796470        0.0464964382
 H          2.0700075227        2.8705202769        0.9155231395
 H          3.7865153236        1.4508465516       -1.1817525783
 H          4.1518500026        3.0184665129       -0.3125362105
