  23
        -38.82303443
 C         -3.9506099679       -0.5038856529        0.3346302490
 C         -2.9224461024       -1.2278409475       -0.1003830075
 C         -1.5348931521       -0.8390978250       -0.0857598046
 N         -0.5633813608       -1.8134301779       -0.0659202492
 C          0.6535283764       -1.2388550098       -0.0215388952
 N          1.8222432211       -1.9229133573        0.0097834200
 C          2.8703465284       -1.1768417725        0.0285822896
 N          2.8414632263        0.1758069602        0.0216923576
 C          1.6759656998        0.9727487752       -0.0029143425
 O          1.8072461481        2.1785459435        0.0052497480
 C          0.4906350341        0.1570273825       -0.0255944039
 C         -0.9150143685        0.4093411574       -0.0776650215
 C         -1.6097905368        1.6724181320       -0.2099780599
 C         -1.1444577213        2.8627453078        0.1487868498
 H         -4.9577605551       -0.8788907261        0.2760672203
 H         -3.8221573388        0.4670507927        0.7780980378
 H         -3.1029763402       -2.2268503083       -0.4827234401
 H         -0.7301235422       -2.8063212686       -0.0510121359
 H          3.8398910967       -1.6536563573        0.0508212507
 H          3.7064519405        0.7022417374        0.0361616965
 H         -2.5951263592        1.5887697561       -0.6525093722
 H         -0.1707757652        2.9880337642        0.5858724121
 H         -1.7276858545        3.7551913706       -0.0044124392
