  24
        -46.36986806
 C         -4.2805714633       -1.3529463393       -0.3740630675
 C         -3.6196244161       -0.3829705266        0.2430060783
 C         -2.1809371781       -0.1490668616        0.1279168829
 C         -1.3123443627       -1.2317244066        0.0233448927
 C          0.0617576914       -1.0758125002       -0.0139301490
 C          0.5818641796        0.2034216054        0.0769162641
 O          1.9595119803        0.5063412557        0.0709780090
 C          2.8515731330       -0.4519553385       -0.0303358016
 F          2.8210382094       -1.3517965978        0.9710975029
 F          2.7672365518       -1.1767616063       -1.1619650477
 F          4.0672740673        0.0871570887       -0.0166472304
 C         -0.2533584713        1.3000252121        0.1890984107
 C         -1.6363722873        1.1471107257        0.1954353856
 C         -2.4515556757        2.3597900794        0.2470978666
 C         -3.6024850183        2.5428167949       -0.3860353187
 H         -5.3382867513       -1.4933373734       -0.2321108098
 H         -3.7984243630       -2.0274649533       -1.0618189879
 H         -4.1489483976        0.3015889834        0.8935910817
 H         -1.7217188552       -2.2294503404       -0.0081827308
 H          0.6919398914       -1.9463115203       -0.0974579777
 H          0.1890618098        2.2815663362        0.2515341442
 H         -2.0186285413        3.1736810100        0.8154001898
 H         -4.0397052289        1.7823641358       -1.0104857674
 H         -4.1352477176        3.4764447366       -0.3222293806
