  20
        -25.65624333
 C          3.0703768848        0.3569127341        0.0041467801
 C          1.6083534267        0.0222942030        0.0003762141
 C          1.1674560808       -1.2921745307       -0.0000128879
 C         -0.1889897207       -1.5711600248       -0.0020450402
 C         -1.1380651438       -0.5646014439       -0.0041536519
 C         -2.6048079875       -0.8845933260        0.0047455079
 C         -0.6999226208        0.7683664797       -0.0119949027
 N         -1.6098798697        1.8126170597        0.0525368503
 C          0.6649583784        1.0384791364       -0.0095857064
 H          3.6748415142       -0.5463657002        0.0239445046
 H          3.3197525590        0.9614071776        0.8755222038
 H          3.3324953163        0.9303649347       -0.8846251472
 H          1.8822051825       -2.1019856600        0.0026358729
 H         -0.5177671105       -2.6011593578       -0.0000161515
 H         -2.7573589555       -1.9592972101        0.0608517034
 H         -3.0909618883       -0.5208660959       -0.9029097269
 H         -3.0933495116       -0.4201403210        0.8611753863
 H         -2.5239608161        1.6247078467       -0.3261579003
 H         -1.2421690907        2.7146323787       -0.2072745714
 H          0.9925798182        2.0698371813       -0.0125021576
