  44
        -76.31893707
 C         -2.1764980742        6.0791667457       -0.2090270870
 O         -1.3170814800        4.9706028398       -0.1174311413
 C         -1.8608121786        3.7180364787       -0.0854673489
 C         -3.2316866973        3.4510496831       -0.1291962521
 C         -3.6982694932        2.1498480312       -0.1103584898
 C         -0.9360282078        2.6786888075       -0.0057393651
 C         -1.4096980029        1.3815970219        0.0393991678
 C         -2.7946904636        1.1032894433       -0.0299018911
 C         -2.9264595992       -0.3267734602       -0.0124825010
 C         -4.0080644141       -1.1916598734       -0.0335908296
 C         -3.7890994840       -2.5554816531        0.0218943978
 C         -2.4919342951       -3.0666505212        0.1159396982
 O         -2.1901837403       -4.3960511770        0.1939010209
 C         -3.2401844103       -5.3305333321        0.1840683648
 C         -1.3909679064       -2.2126549074        0.1393054023
 C         -1.6150930036       -0.8519051591        0.0571181276
 N         -0.7066999754        0.1912020497        0.0896313670
 C          0.6819677117        0.0635744048        0.1635009652
 C          1.4116013010        0.8094922624        1.0876806038
 C          2.7818588553        0.6797640662        1.1539110234
 C          3.4679724976       -0.1989233146        0.3108223831
 C          4.9118195302       -0.2864501613        0.4418647079
 C          5.7583973263       -1.0501713174       -0.2337038569
 F          5.4868622631       -1.9222119697       -1.1978496927
 F          7.0738624230       -1.0421663182       -0.0195941105
 C          2.7281221395       -0.9439275345       -0.6107151559
 C          1.3575328354       -0.8117897317       -0.6851762412
 H         -1.5272567447        6.9534228403       -0.2249743970
 H         -2.8462156354        6.1437843480        0.6549633274
 H         -2.7705202276        6.0548181116       -1.1285417470
 H         -3.9434663755        4.2586260174       -0.1884845108
 H         -4.7585633801        1.9547834690       -0.1619221328
 H          0.1151573504        2.9160888623        0.0041913296
 H         -5.0151595030       -0.8074008977       -0.0888566303
 H         -4.6375533044       -3.2203454768        0.0015045689
 H         -2.7643260429       -6.3073468534        0.2578470957
 H         -3.8171091003       -5.2803638892       -0.7453140863
 H         -3.9123261629       -5.1918534297        1.0373270077
 H         -0.4046611597       -2.6365931742        0.2334242699
 H          0.8945382735        1.4746864030        1.7619812206
 H          3.3351631601        1.2604347682        1.8774147370
 H          5.3669894756        0.3501528009        1.1870914182
 H          3.2227726097       -1.6254059377       -1.2828873218
 H          0.8003109399       -1.3757123408       -1.4172554599
