  24
        -46.36996551
 C         -4.6155714674       -0.9073624239        0.4188286081
 C         -3.6900922154       -0.2896466501       -0.3027151391
 C         -2.2490002279       -0.4017180806       -0.0838389618
 C         -1.7052146860       -1.6183923078        0.3305998310
 C         -0.3462905438       -1.7904133640        0.4790068255
 C          0.5036796681       -0.7312256926        0.1896844317
 O          1.8766606953       -1.0092099521        0.3531869487
 C          2.7793260896       -0.0905649519        0.0980211992
 F          2.6838659955        1.0147351600        0.8614446486
 F          3.9877355379       -0.5993720463        0.3199042002
 F          2.7795615882        0.3552250005       -1.1729276211
 C          0.0009906572        0.4819060829       -0.2293556044
 C         -1.3786270350        0.6670755995       -0.3511342908
 C         -1.8397024554        2.0004794553       -0.7339100673
 C         -2.9276223089        2.6015430248       -0.2710071924
 H         -5.6638090020       -0.8071061378        0.1959279296
 H         -4.3660235159       -1.5148723099        1.2727154278
 H         -3.9851818171        0.3477516711       -1.1264954735
 H         -2.3662688352       -2.4502153408        0.5181409003
 H          0.0749737026       -2.7287888265        0.7990614429
 H          0.6484061560        1.3158205057       -0.4523111809
 H         -1.1827120411        2.5322851938       -1.4110977611
 H         -3.5766888504        2.1344160623        0.4501358092
 H         -3.1909693435        3.5990311321       -0.5793549734
