34
 energy: -52.779459516998 gnorm: 0.000092097508 xtb: 6.4.1 (23d549d)
C        -3.91619852380000    3.01860047910000    0.34708513460000
C        -3.79790816050000    1.70092083060000    0.46485518870000
C        -2.64803051320000    0.87316348070000    0.12673164370000
C        -2.73168836670000   -0.50633536830000    0.31978863740000
C        -1.71111556750000   -1.40760636540000    0.03729025860000
C        -1.96849422130000   -2.81603391810000    0.31144925880000
C        -1.14235999170000   -3.84952151630000    0.19511137480000
C        -0.50518894330000   -0.89368607550000   -0.49092228840000
O         0.48476674330000   -1.76919672530000   -0.79059406210000
C         1.69380367720000   -1.28788783820000   -1.33962592440000
C         2.51743622220000   -0.45519716050000   -0.38589469620000
C         2.41306093620000   -0.64717649050000    0.98480534820000
C         3.17522647220000    0.11181588660000    1.85490218660000
C         4.05358774990000    1.06150410220000    1.36258174870000
C         4.16683173720000    1.25166547300000   -0.00440245310000
C         3.39969363910000    0.49927775150000   -0.87540592640000
C        -0.38995453740000    0.47690056420000   -0.68795451970000
C        -1.43407877490000    1.32803152930000   -0.38421725400000
F        -1.21591570930000    2.64178329270000   -0.61178066680000
H        -4.82819075410000    3.51495086910000    0.63357539310000
H        -3.13342238740000    3.65110952670000   -0.02937602150000
H        -4.63625705350000    1.13472770190000    0.85367322750000
H        -3.65584664300000   -0.90023096770000    0.71917989430000
H        -2.97639003140000   -3.00352328460000    0.66450332820000
H        -0.12839921880000   -3.75158121470000   -0.14255478720000
H        -1.47429538030000   -4.84441539950000    0.44282104610000
H         1.50289436320000   -0.73336531120000   -2.26853800110000
H         2.24836968140000   -2.19819155260000   -1.59815528190000
H         1.72707959630000   -1.38901746970000    1.36715248860000
H         3.08275262020000   -0.04052112930000    2.91998556420000
H         4.64829213460000    1.65367852690000    2.04193678640000
H         4.84965154030000    1.99218725350000   -0.39378602080000
H         3.48412459350000    0.65318636960000   -1.94222333090000
H         0.51602955840000    0.91956667140000   -1.06802176150000
