  24
        -38.03630849
 C          3.4760014984        1.7505808889        0.3991822897
 C          2.3364568194        1.7463001234       -0.2789420382
 C          1.2820415634        0.7521872542       -0.1689287118
 C         -0.0814723413        1.0856533696       -0.2420178217
 C         -0.8128665078       -0.0620158885        0.0032187793
 C         -2.2389186522       -0.3262693533        0.0624402774
 O         -2.7114314721       -1.4193124234        0.2954180701
 O         -2.9794500391        0.7712566007       -0.1698819212
 C         -4.3846447416        0.5819566590       -0.1277698270
 N          0.0759888281       -1.0746944782        0.2127798837
 C          1.3507804803       -0.6237039565        0.1006521214
 C          2.4373081400       -1.5710208039        0.1890562096
 C          3.6553015922       -1.4273915811       -0.3228069416
 H          4.1904059979        2.5490421108        0.2934220112
 H          3.7314235996        0.9637727098        1.0883666309
 H          2.0956338743        2.5791311296       -0.9288272563
 H         -0.4886247393        2.0587080324       -0.4303635029
 H         -4.8279224223        1.5555584230       -0.3200849451
 H         -4.6893032594        0.2078927363        0.8522576936
 H         -4.6948100809       -0.1380414289       -0.8884731309
 H         -0.2079961236       -2.0274041410        0.3827659987
 H          2.1744441494       -2.4996619033        0.6841198902
 H          3.9482491813       -0.5384879606       -0.8525785564
 H          4.3933265469       -2.2051640477       -0.2314472100
