  25
        -44.38867462
 C          2.3421775184       -3.2629710567        0.0949944696
 C          1.0986228828       -2.8391713367       -0.0994478059
 C          0.6010757667       -1.4697007695       -0.0749103446
 C         -0.7725025282       -1.2606924835       -0.0561836236
 C         -1.3561804105        0.0043453489       -0.0297727410
 C         -2.8223131594        0.1746999465        0.0282996984
 O         -3.3938343242        1.2183682550       -0.2019198714
 O         -3.5578548686       -0.8939161815        0.3776188558
 C         -0.5186137971        1.1488545070       -0.0659612261
 N         -1.0390545301        2.3876330223       -0.0384521971
 C          0.8872570972        0.9667449603       -0.0909889337
 C          1.7705203554        2.1365466547       -0.1799157030
 C          2.8889430737        2.3009978233        0.5099422670
 C          1.4015345294       -0.3175140257       -0.0837618560
 F          2.7398575990       -0.4528157879       -0.1530781720
 H          2.5726616727       -4.3141948529        0.0576910669
 H          3.1678055165       -2.6061919898        0.2970196312
 H          0.3240512857       -3.5753527780       -0.2826928308
 H         -1.3946627042       -2.1462813188       -0.0936386175
 H         -3.0184717130       -1.6599567916        0.6119145966
 H         -2.0448409562        2.4783322366       -0.0947688886
 H         -0.4415400160        3.1925066322       -0.0200334157
 H          1.4573433880        2.8986054071       -0.8849512356
 H          3.2318885270        1.5752351268        1.2268940276
 H          3.5043212771        3.1748587508        0.3818361774
