  17
        -32.83534853
 C          2.7068022680       -2.6402958673        0.1590372273
 C          1.5782765115       -2.0281261080       -0.1772546619
 C          1.3466577464       -0.5967728367       -0.0776027145
 C          2.3394609197        0.3399150075       -0.0639162074
 S          1.7463619871        1.9458084816        0.0259410506
 C          0.1315159356        1.3819859456        0.0521207578
 C          0.0464382488        0.0175605185       -0.0092206093
 C         -1.1840056935       -0.7430462281        0.0259762121
 C         -2.4166055064       -0.2569204643        0.0098116465
 F         -2.7793971828        1.0202214986       -0.0503555076
 F         -3.5073690137       -1.0195551081        0.0513099776
 H          2.8218341863       -3.7046237165        0.0499456885
 H          3.5498700837       -2.1073399499        0.5637551283
 H          0.7542312695       -2.6134850410       -0.5623416598
 H          3.3962279728        0.1766214177       -0.1276893933
 H         -0.6670188214        2.0923325256        0.1194624209
 H         -1.1066433553       -1.8176070110        0.0795667314
  17
        -32.83453798
 C          1.2603070477       -2.8313771637       -0.4360129586
 C          1.9080932492       -1.8438523238        0.1678800570
 C          1.5200445601       -0.4406345200        0.1387013336
 C          2.4400335554        0.5649496095        0.0781517949
 S          1.7259571014        2.1214313162       -0.0215050579
 C          0.1583627067        1.4386579151        0.0460555642
 C          0.1781542072        0.0736939187        0.1341904773
 C         -0.9911718034       -0.7644441960        0.3017259151
 C         -2.2410416793       -0.4236537665        0.0286668027
 F         -2.6630015873        0.7290117901       -0.4829669730
 F         -3.2863496564       -1.2251883635        0.2244824054
 H          1.6164651010       -3.8460676114       -0.3862665815
 H          0.3732804583       -2.6651172555       -1.0235355594
 H          2.8313275388       -2.0488021553        0.6953284879
 H          3.5077497726        0.4709908321        0.0573019967
 H         -0.6953473047        2.0855933048        0.0407296334
 H         -0.8331706996       -1.7554098941        0.6986769496
  17
        -32.83248142
 C          1.5728383152       -2.5830295179        0.5057069046
 C          0.8146446052       -1.7126673225       -0.1466414639
 C          0.9879971212       -0.2697071681       -0.1103337246
 C          2.1830042767        0.3575454922        0.0952593087
 S          2.0797307825        2.0638757356       -0.0406600635
 C          0.4064871460        1.9623601195       -0.3903657709
 C         -0.0556971666        0.6772349817       -0.3836277814
 C         -1.4582794576        0.3677554744       -0.6154913385
 C         -2.1646055965       -0.5546163258        0.0175369719
 F         -1.7559087973       -1.3571908078        0.9916850708
 F         -3.4520300727       -0.7911310535       -0.2313404620
 H          1.4068367827       -3.6429231862        0.4264182033
 H          2.3717608083       -2.2688764318        1.1555400204
 H          0.0019170576       -2.0638156431       -0.7690966101
 H          3.1343556807       -0.0954869666        0.2884734198
 H         -0.1582264637        2.8583546180       -0.5561109011
 H         -1.9897863055        0.9738543980       -1.3339721466
  17
        -32.83128650
 C          0.5299568502       -2.5640593006       -0.1682694048
 C          1.0881488354       -1.6103209127        0.5631102987
 C          1.1045095877       -0.1950973160        0.2142649991
 C          2.2020198804        0.5856911802        0.4337043806
 S          2.0366464685        2.1749774646       -0.1903959796
 C          0.4587954055        1.8146545281       -0.7501895728
 C          0.0718411420        0.5373084727       -0.4606451356
 C         -1.2720130808        0.0668579856       -0.7702071027
 C         -2.0304456502       -0.6583227419        0.0342212389
 F         -1.7178553296       -1.0996605178        1.2451105108
 F         -3.2663390250       -1.0499284460       -0.2710017560
 H          0.5779152511       -3.5974706713        0.1274275773
 H          0.0121723884       -2.3528745521       -1.0891347100
 H          1.6347751217       -1.8655826833        1.4613584787
 H          3.1211219039        0.2973287353        0.9041488065
 H         -0.1195260287        2.5757726910       -1.2355921007
 H         -1.7148050369        0.3894847579       -1.7004483199
