  40
        -56.21352050
 C          7.9932900005       -0.6641374883       -0.4660278479
 C          7.1412110213        0.1068108981        0.1997939791
 C          5.6869504146        0.0662289076        0.1293396810
 C          4.9842142891       -0.8359510606       -0.6715102031
 C          3.6059388665       -0.8357096419       -0.6994079007
 C          2.8714445919        0.0700505684        0.0653133079
 C          1.4041771982        0.0698653991        0.0309745055
 C          0.6897107882       -1.1266889775        0.0105500177
 C         -0.6897731460       -1.1266310307       -0.0134855708
 C         -1.4042039406        0.0699725547       -0.0327388145
 C         -2.8714860900        0.0700807010       -0.0663449421
 C         -3.6053168379       -0.8365442744        0.6980025406
 C         -4.9835930376       -0.8372714718        0.6707514067
 C         -5.6870201110        0.0652873898       -0.1290598284
 C         -7.1413279306        0.1050731072       -0.1990329861
 C         -7.9928072950       -0.6615459376        0.4724720541
 C         -4.9477988807        0.9688331272       -0.8956946776
 C         -3.5693401179        0.9756403307       -0.8634779060
 C         -0.6895567961        1.2665327944       -0.0198016326
 C          0.6895809466        1.2664698367        0.0187348264
 C          3.5686124416        0.9751309549        0.8636008805
 C          4.9470499982        0.9689110472        0.8963347115
 H          9.0574895158       -0.5559455813       -0.3445146027
 H          7.6750942109       -1.4283489831       -1.1540697887
 H          7.5352663777        0.8569592214        0.8754609033
 H          5.5216359710       -1.5458201620       -1.2812658431
 H          3.0852742191       -1.5328024679       -1.3402835565
 H          1.2237723332       -2.0656618409        0.0347521181
 H         -1.2238927090       -2.0655486935       -0.0385091370
 H         -3.0840960185       -1.5340330319        1.3379920718
 H         -5.5204629933       -1.5481213185        1.2798494328
 H         -7.5359646266        0.8510368915       -0.8790117427
 H         -7.6739936594       -1.4209453796        1.1655530810
 H         -9.0571105453       -0.5543046536        0.3510314190
 H         -5.4687961726        1.6750471241       -1.5275335217
 H         -3.0223179275        1.6746040116       -1.4797189902
 H         -1.2242069212        2.2054860515       -0.0191788699
 H          1.2243015255        2.2053831081        0.0187621110
 H          3.0210351707        1.6733338952        1.4802066928
 H          5.4674921424        1.6748000818        1.5289916107
