  30
        -49.78272865
 C         -0.2590767747       -0.0219317629       -2.5089642111
 C         -0.6650726236       -1.0583988088       -1.7901215199
 C         -1.5454140568       -0.9972589404       -0.6211136945
 C         -2.4987195955       -2.0031970851       -0.4666907904
 C         -3.4067728419       -1.9809306673        0.5738369492
 C         -3.3721689630       -0.9461636961        1.4938484318
 C         -2.4183118186        0.0466547537        1.3700285783
 C         -1.4936488125        0.0320699690        0.3302848794
 C         -0.4719483890        1.0968928292        0.2956084575
 C         -0.8813893065        2.4237521110        0.2325214615
 C          0.0423264763        3.4521688456        0.1974502382
 C          1.3958022463        3.1610415270        0.2366586857
 C          1.8189950914        1.8480152848        0.3187843860
 C          0.8996320388        0.8014509300        0.3514960358
 C          1.3220274958       -0.5880283920        0.4844362174
 C          2.4748691419       -1.1049395049        0.0936456486
 F          3.4765723381       -0.4840639362       -0.5203205635
 F          2.7969657343       -2.3887300560        0.2528926824
 H          0.3613538996       -0.1515749987       -3.3792883080
 H         -0.5342303036        0.9902777563       -2.2667237283
 H         -0.3960550775       -2.0610367194       -2.1012011480
 H         -2.5320225087       -2.8046672091       -1.1910663826
 H         -4.1399330616       -2.7681753844        0.6678932228
 H         -4.0786922757       -0.9181517262        2.3099194513
 H         -2.3682752529        0.8422358634        2.0999177338
 H         -1.9389755827        2.6426164710        0.1913763113
 H         -0.2926722346        4.4771433070        0.1403908175
 H          2.1232251120        3.9583116142        0.2112971476
 H          2.8743998038        1.6341793449        0.3759326764
 H          0.6221554470       -1.2788530338        0.9311107032
