  20
        -43.32712318
 C          3.6934150353        1.0093232085        0.1731229143
 C          2.4603409524        1.4220467367       -0.0945427146
 C          1.2410019143        0.6205675508       -0.0422071410
 C          1.2045535911       -0.7764600457       -0.0475400376
 F          2.3312769613       -1.4963171739       -0.1167403709
 C         -0.0000329985       -1.4653016901        0.0001956434
 F         -0.0000024184       -2.8050653470        0.0001236054
 C         -1.2046334690       -0.7764858078        0.0479423926
 F         -2.3314317099       -1.4962196953        0.1170139107
 C         -1.2410038856        0.6205234323        0.0429634215
 C         -2.4605026408        1.4218142751        0.0949432133
 C         -3.6927845154        1.0094873770       -0.1769123001
 C         -0.0000221051        1.2621264717        0.0006099590
 F         -0.0001081055        2.6081670330        0.0009031607
 H          4.5216982056        1.6936293903        0.1077449633
 H          3.9313497394        0.0035189971        0.4688153598
 H          2.2923785318        2.4576342432       -0.3585968725
 H         -2.2933267215        2.4565554394        0.3622833581
 H         -3.9295377711        0.0044548121       -0.4760188846
 H         -4.5215166880        1.6932092278       -0.1117606850
  20
        -43.32683337
 C          3.5406341531        1.1779347816        0.2722004721
 C          2.3041635475        1.4832868987       -0.1014583031
 C          1.1394306139        0.6023115064       -0.0574638788
 C          1.2081172650       -0.7921871543       -0.0169937168
 F          2.3885722093       -1.4239451918       -0.0234124479
 C          0.0579138319       -1.5709759700        0.0006838857
 F          0.1551915283       -2.9063616999        0.0293478780
 C         -1.1874819094       -0.9625116874       -0.0154255232
 F         -2.2812532815       -1.7367104669        0.0063716306
 C         -1.3294712308        0.4292776256       -0.0475292019
 C         -2.6755145653        0.9961663822       -0.0690269564
 C         -3.0231159869        2.2361776020        0.2522797150
 C         -0.1429506227        1.1628917099       -0.0783108585
 F         -0.2162029955        2.5034429037       -0.1446489098
 H          4.3266132164        1.9099476894        0.2031635094
 H          3.8211351979        0.2159151647        0.6615774934
 H          2.0863971482        2.4824041889       -0.4543432446
 H         -3.4413542078        0.2867985366       -0.3535581279
 H         -2.3207577351        2.9835501196        0.5742955050
 H         -4.0546090619        2.5404402553        0.2075267042
  20
        -43.32646721
 C          2.8215523437        2.3207140517       -0.2687222729
 C          2.5325254773        1.0901480934        0.1350506745
 C          1.2318311934        0.4271223924        0.0628730299
 C          1.1938114662       -0.9708489094        0.0783148414
 F          2.3408045505       -1.6601256711        0.1530538615
 C         -0.0000198439       -1.6725451032        0.0003525196
 F         -0.0000468790       -3.0112624952        0.0006184103
 C         -1.1938289974       -0.9708443516       -0.0778828038
 F         -2.3408336555       -1.6601331347       -0.1523508066
 C         -1.2318248799        0.4271368819       -0.0629924490
 C         -2.5325230017        1.0901166357       -0.1354024716
 C         -2.8215034414        2.3209998061        0.2674434390
 C          0.0000152359        1.0836472975       -0.0001899722
 F          0.0000504996        2.4258420209       -0.0004265680
 H          3.8236303267        2.7024182101       -0.1760910704
 H          2.0986462547        2.9843226263       -0.7078281633
 H          3.3188584815        0.4630680321        0.5341294559
 H         -3.3189284087        0.4627211628       -0.5338419026
 H         -2.0985339384        2.9850057545        0.7058389691
 H         -3.8236160174        2.7025868292        0.1746938685
