  42
        -60.35588659
 C          2.7726603386       -2.8591793736        1.1684652674
 C          1.7583966544       -3.0432815096        0.0399236200
 C          0.9428083596       -4.3191923851        0.2546082477
 O          0.7665569287       -1.9915432569        0.0772291362
 C          1.1239011752       -0.7103538792       -0.0910740913
 N          0.0150535144        0.0998248297       -0.0505012879
 C          0.1463582162        1.5067527535        0.0133009817
 C         -0.7484815955        2.3051420853       -0.6908602808
 C         -0.6500642329        3.6821695499       -0.6283976985
 C          0.3414973984        4.2950010832        0.1253545605
 C          0.4649275909        5.7872281891        0.1869543122
 C          1.2313933571        3.4869596191        0.8238356132
 C          1.1375355407        2.1098185674        0.7791239345
 C         -1.2953736305       -0.4376013269       -0.0659912938
 C         -2.2078081736       -0.0328375489        0.9021179423
 C         -3.4953768983       -0.5361270196        0.8923486197
 C         -3.8812576716       -1.4463008734       -0.0774126694
 C         -2.9748305175       -1.8447407264       -1.0456363494
 C         -1.6879900684       -1.3393211324       -1.0482906950
 O          2.2486178349       -0.3016252202       -0.2453651085
 C          2.4523847349       -3.0729971525       -1.3216988801
 H          2.2574837457       -2.7912215755        2.1244645791
 H          3.3471661905       -1.9504619294        1.0118635147
 H          3.4512614239       -3.7072362801        1.1925503814
 H          0.4258154666       -4.2729542747        1.2093496698
 H          1.5972326868       -5.1856263798        0.2440326077
 H          0.1996110609       -4.4229158698       -0.5315532951
 H         -1.5223453818        1.8433665628       -1.2864982982
 H         -1.3536433129        4.2876226678       -1.1818060594
 H         -0.3641479732        6.2685388918       -0.3253948525
 H          1.3944060637        6.1075623313       -0.2830047512
 H          0.4822069433        6.1270336073        1.2214235760
 H          2.0075318510        3.9453122847        1.4196779898
 H          1.8368506839        1.5015813212        1.3290257114
 H         -1.9005258236        0.6775798125        1.6554898745
 H         -4.1985126595       -0.2194939989        1.6484490630
 H         -4.8861581195       -1.8410953845       -0.0809524510
 H         -3.2744572937       -2.5466573754       -1.8099785961
 H         -0.9842248469       -1.6389277025       -1.8095585510
 H          3.1378107103       -3.9147754219       -1.3642679352
 H          3.0107016752       -2.1541862190       -1.4788389001
 H          1.7157944448       -3.1786331994       -2.1157105154
