  20
        -27.54681394
 C          2.7132328173       -1.3808014441       -0.2146991540
 C          2.2748245861       -0.1707368026        0.1227432913
 C          0.9045675732        0.2706785281        0.0846819389
 S          0.5893320993        1.9734524632       -0.0726757262
 C         -1.1030657931        1.6901595745       -0.0921654169
 C         -1.4260316622        0.3736677485        0.0134947189
 C         -2.8376193355       -0.1121019082        0.0550357713
 C         -0.2681334978       -0.4567334205        0.1197543264
 C         -0.2939962491       -1.8939410299        0.3521811765
 C         -1.1144500264       -2.7581969901       -0.2297986175
 H          3.7583742120       -1.6300396413       -0.1510666632
 H          2.0549699574       -2.1478276981       -0.5832567355
 H          2.9843910782        0.5889290822        0.4275396456
 H         -1.7724484604        2.5236244841       -0.1782457715
 H         -3.4992809853        0.6855975925        0.3852667029
 H         -2.9283138112       -0.9576623528        0.7335259734
 H         -3.1625830263       -0.4317096323       -0.9350862043
 H          0.4378533705       -2.2465364459        1.0701764654
 H         -1.8227592066       -2.4624452793       -0.9837811652
 H         -1.0837090995       -3.8078304728        0.0094746857
