  20
        -34.89424886
 C          4.1103305866       -0.1360628617        0.0384275897
 C          3.0851645590        0.7081241194        0.0118577838
 C          1.6731851079        0.3554435022        0.0005581999
 C          0.7189744009        1.3731472740       -0.0102854127
 C         -0.6281801236        1.0806068907       -0.0180800864
 F         -1.4763960308        2.1282560835       -0.0369462342
 C         -1.1285763882       -0.2258728271       -0.0171553767
 C         -2.5316239612       -0.6133931365       -0.0284063760
 C         -3.5883810347        0.1818275565        0.1001788749
 C         -0.1376853178       -1.2179662083       -0.0130579728
 F         -0.5255448527       -2.5112908391       -0.0155920443
 C          1.2140322064       -0.9621551728       -0.0022433432
 H          5.1255215746        0.2208527039        0.0455849282
 H          3.9872765868       -1.2050444589        0.0548281954
 H          3.2808134070        1.7727480501       -0.0017354114
 H          1.0203587909        2.4095153375       -0.0133575503
 H         -2.6874675274       -1.6782376443       -0.1446697640
 H         -3.5183553063        1.2460526417        0.2323356134
 H         -4.5835495587       -0.2288118804        0.0786790116
 H          1.8958243133       -1.7962500885        0.0022658532
  20
        -34.89422707
 C          4.0645310492       -0.3534081684       -0.0242075559
 C          3.1181782464        0.5786770001       -0.0227748080
 C          1.6802767685        0.3539167070       -0.0075696015
 C          0.8207288039        1.4535930049       -0.0071650205
 C         -0.5427911903        1.2667624370        0.0078440391
 F         -1.3245305143        2.3671972528        0.0075203803
 C         -1.1601165137        0.0088063215        0.0185032097
 C         -2.6131268881       -0.0772790652        0.0350196041
 C         -3.3575084358       -1.1701780910       -0.0955092637
 C         -0.2644686986       -1.0670237838        0.0210128610
 F         -0.7325924578       -2.3313994361        0.0464861200
 C          1.1052109976       -0.9165714314        0.0090227894
 H          5.1073004319       -0.0878343180       -0.0361271901
 H          3.8475667274       -1.4073878752       -0.0137288512
 H          3.4077168575        1.6217734400       -0.0338765100
 H          1.2093834781        2.4601669787       -0.0177550750
 H         -3.1034911841        0.8800592010        0.1568995771
 H         -2.9485131752       -2.1543307055       -0.2337567739
 H         -4.4318333950       -1.1024706672       -0.0696074970
 H          1.7136515342       -1.8058592305        0.0143695445
