  20
        -43.34042567
 C          1.9550294088        2.1440098972       -0.9837181862
 C          1.0976811063        2.1408726656        0.0252808126
 C         -0.1018289438        1.2995983095        0.0969833385
 C         -1.3041332019        1.9056616661        0.4571586639
 C         -2.4994414013        1.2148968326        0.4455314383
 C         -2.5029853829       -0.1165054318        0.0691303766
 F         -3.6577029532       -0.8006031638        0.0380705340
 C         -1.3137216788       -0.7466255921       -0.2635437915
 F         -1.3225599319       -2.0497313247       -0.5970984094
 C         -0.0977453180       -0.0630075083       -0.2374681984
 C          1.1092908668       -0.8397086949       -0.5311315152
 C          2.2281185953       -0.7978295720        0.1709392189
 F          2.4731495367       -0.0331205661        1.2255878080
 F          3.2954720669       -1.5408904032       -0.0926243260
 H          2.7952593170        2.8156919114       -1.0054626578
 H          1.8449729357        1.4855515566       -1.8295608796
 H          1.2146852799        2.8434246840        0.8394850989
 H         -1.2987631327        2.9494728035        0.7310825328
 H         -3.4289485008        1.6886958636        0.7164876293
 H          1.0505936959       -1.5719241371       -1.3227975750
