  40
        -80.92743304
 F          2.4521157201        3.8645333681       -0.2675780658
 C          3.3684770899        2.9288136772       -0.5870725781
 F          3.3856860565        2.8775161522       -1.9322055391
 F          4.5554833697        3.4173218834       -0.2096067722
 C          3.0455002877        1.5977767286        0.0269997725
 C          1.8587012253        0.9844075852       -0.3508953626
 C          1.4932676107       -0.2300321794        0.2179433667
 N          0.2852283711       -0.8611251317       -0.1143983801
 C          0.4251258119       -2.2146345197       -0.4903430424
 C          1.1747293352       -3.0769101227        0.3054486938
 S          1.9814580891       -2.4429691085        1.7557441876
 C          1.3244172097       -4.4110393895       -0.0373712099
 C          0.7333137230       -4.8917009935       -1.1912914502
 C          0.0309321788       -4.0300703097       -2.0188737573
 C         -0.1112557375       -2.6967787605       -1.6803062222
 C         -0.9510016910       -0.2393852074        0.0087498182
 C         -1.0598524086        1.0782243499        0.4653376816
 C         -2.2915734412        1.6787937605        0.5961818073
 C         -3.4742109789        0.9997679447        0.2947654659
 C         -4.7341166332        1.7047275258        0.4339691388
 C         -5.9573568363        1.2661955276        0.1729632276
 F         -6.3193547078        0.0695783150       -0.2801330506
 F         -7.0503904717        2.0119298886        0.3381516684
 C         -3.3657741070       -0.3343807773       -0.1022858469
 C         -2.1364538911       -0.9410113594       -0.2348234975
 C          2.3818491110       -0.8520258940        1.1011081592
 C          3.5690698080       -0.2352444599        1.4662182926
 C          3.8976243610        1.0030690003        0.9478980248
 H          1.2167201482        1.4517858330       -1.0820283308
 H          1.8983313884       -5.0594688206        0.6059864019
 H          0.8373861898       -5.9329761982       -1.4530402515
 H         -0.4045787700       -4.3950024710       -2.9361839537
 H         -0.6417452487       -2.0191408490       -2.3317912081
 H         -0.1803296990        1.6357723782        0.7450479858
 H         -2.3389391256        2.6998047139        0.9448320584
 H         -4.6793667293        2.7231181191        0.7909926248
 H         -4.2495665860       -0.9164493405       -0.3046845798
 H         -2.1020019985       -1.9831685372       -0.5091160235
 H          4.2243801651       -0.7281662938        2.1665448152
 H          4.8113601060        1.4942894895        1.2410603268
  40
        -80.92709148
 F          1.9352928329        3.7822740255       -0.4021841419
 C          2.9857060513        2.9582877081       -0.5766583345
 F          3.1672461260        2.8715426084       -1.9086167457
 F          4.0554287818        3.5974238450       -0.0893112792
 C          2.7554698475        1.6133724643        0.0495167686
 C          1.6524171959        0.8847602606       -0.3746578770
 C          1.3804715109       -0.3550978189        0.1916493449
 N          0.2602751413       -1.1077511998       -0.1925036078
 C          0.5566658244       -2.4414824507       -0.5471724748
 C          1.3474826796       -3.2190979483        0.2947168440
 S          2.0082232396       -2.4979924066        1.7775596746
 C          1.6494967055       -4.5326095345       -0.0267346992
 C          1.1714040214       -5.0763079217       -1.2047874303
 C          0.4290894881       -4.2947031287       -2.0758770845
 C          0.1345170253       -2.9814023617       -1.7581394728
 C         -1.0382610797       -0.6174660314       -0.1363681554
 C         -1.3066197183        0.6853040255        0.2964668281
 C         -2.5967885836        1.1627008118        0.3666980955
 C         -3.6850467923        0.3587422928        0.0220048118
 C         -5.0654223152        0.8027844528        0.0558199219
 C         -5.5403661144        1.9981893275        0.3759829904
 F         -4.8601986558        3.0783190383        0.7450101666
 F         -6.8417388569        2.2899429928        0.3687674197
 C         -3.4169110766       -0.9590978781       -0.3547788046
 C         -2.1300776824       -1.4422021228       -0.4267725606
 C          2.2816703063       -0.8795978644        1.1238144806
 C          3.3845745832       -0.1472211383        1.5362238460
 C          3.6169786942        1.1118672380        1.0159867777
 H          1.0031011205        1.2820603711       -1.1399349555
 H          2.2518844109       -5.1162156098        0.6516804267
 H          1.3945618203       -6.1026303583       -1.4507296923
 H          0.0819869001       -4.7063241273       -3.0110235308
 H         -0.4273997219       -2.3640602189       -2.4424613164
 H         -0.5025979003        1.3330443517        0.6071575548
 H         -2.7506946713        2.1749987595        0.7016555818
 H         -5.8131581970        0.0717205189       -0.2164614226
 H         -4.2371593064       -1.6211928556       -0.5904970942
 H         -1.9757640989       -2.4769011523       -0.6880492173
 H          4.0504409371       -0.5680388333        2.2727109627
 H          4.4647179680        1.6915382314        1.3438075982
