29
 energy: -43.534041591511 gnorm: 0.000066598306 xtb: 6.4.1 (23d549d)
C        -0.85903979910000   -3.46591958310000    0.67209785900000
C        -1.26072088700000   -2.46390284770000   -0.09805805050000
C        -0.70035968690000   -1.11353270180000   -0.09102055470000
C        -1.58365525560000   -0.03490233690000   -0.09240028650000
O        -2.91046238660000   -0.35349009440000   -0.12797440830000
C        -3.86341318180000    0.68002038730000   -0.14236310610000
C        -1.10823118550000    1.27901874850000   -0.02467933170000
C         0.23981082730000    1.56578757350000    0.04311298100000
C         0.76159387100000    2.91903373060000    0.14713749320000
C         0.05674330800000    4.04429259250000    0.20264988830000
C         1.16801423040000    0.48660044240000    0.00120918130000
N         2.48283790600000    0.77469214490000    0.03878276680000
C         3.35133398070000   -0.19221023290000   -0.03760497950000
C         2.99540863950000   -1.54099351710000   -0.20050291050000
C         1.66713402770000   -1.86539706690000   -0.23007338410000
C         0.69140597720000   -0.85300578410000   -0.08806876540000
H        -1.33230466420000   -4.43240350120000    0.62969994700000
H        -0.06438604490000   -3.35385970300000    1.39136855410000
H        -2.11193046990000   -2.59566469760000   -0.75409013050000
H        -4.83088560380000    0.18233573300000   -0.19364071910000
H        -3.74593526730000    1.32862779370000   -1.01669883880000
H        -3.81909697900000    1.28336257110000    0.77019690680000
H        -1.81128417790000    2.09535700030000   -0.00874479750000
H         1.84120131070000    2.95870864870000    0.17908391040000
H        -1.02004394050000    4.07110849060000    0.17691345470000
H         0.54386664040000    5.00123756560000    0.27762285770000
H         4.39249326740000    0.10268539120000    0.00720565080000
H         3.75992080200000   -2.29445878110000   -0.31315072140000
H         1.35234042580000   -2.88639327760000   -0.38538611000000
