  24
        -32.88240011
 C         -2.8611981791        0.0006395062        0.8372685362
 O         -2.1454849077       -0.0007264355       -0.3769916355
 C         -0.7620876587       -0.0003460905       -0.2073353625
 C         -0.0720216508       -1.2122942437       -0.1428788194
 C         -0.8074548769       -2.5165146624       -0.2367690897
 C          1.3048380088       -1.1971853294        0.0021461439
 C          2.0099621249        0.0003001622        0.0860988866
 N          3.3754265066        0.0006867198        0.3118961267
 C          1.3042812657        1.1974736633        0.0019872771
 C         -0.0725542661        1.2119505012       -0.1430927840
 C         -0.8084902704        2.5158579547       -0.2371318303
 H         -3.9175198542       -0.0002518603        0.5712916288
 H         -2.6374221097        0.8914481470        1.4347465510
 H         -2.6364366815       -0.8881536515        1.4373430105
 H         -1.7702611562       -2.3706309822       -0.7201630632
 H         -0.9770149818       -2.9295309556        0.7585637034
 H         -0.2285305908       -3.2406218362       -0.8058771506
 H          1.8433686183       -2.1334992649        0.0501544896
 H          3.8618023936       -0.8443124834        0.0578446258
 H          3.8611391321        0.8461947434        0.0582597898
 H          1.8424347536        2.1340157704        0.0499814689
 H         -0.2307526890        3.2394266219       -0.8081451532
 H         -0.9763798066        2.9301076538        0.7579673994
 H         -1.7718982096        2.3692088500       -0.7188144292
