  24
        -34.17450676
 C         -3.7068843793       -0.0520053195       -0.5946232139
 C         -2.9225893651        0.8120446294        0.0376079900
 C         -1.4685975825        0.7553542580        0.1000028689
 C         -0.7449253145        1.9393227461        0.1725873357
 C          0.6430959312        1.9650476058        0.1691173426
 C          1.4054052693        0.8047212327        0.0903935590
 C          2.8578855369        0.8912040820        0.0299656317
 C          3.6720843504        0.0392335723       -0.5831159287
 C          0.6868554397       -0.3983927223        0.0856453134
 N          1.1379724461       -1.6850220772        0.1298436909
 C          0.0694807351       -2.5328674405        0.1955534584
 C         -1.0875004254       -1.8188104749        0.1641855893
 C         -0.7302022984       -0.4423049428        0.0950189407
 H         -4.7767900429        0.0706032854       -0.6161328093
 H         -3.3108024037       -0.8939148762       -1.1348351651
 H         -3.3651053423        1.6778349937        0.5169371914
 H         -1.2818449647        2.8769049867        0.2093726625
 H          1.1503274717        2.9187659545        0.2047209145
 H          3.2786397388        1.7699451702        0.5045634735
 H          3.3121949358       -0.8122774775       -1.1363888824
 H          4.7380635673        0.1918446389       -0.5945141698
 H          2.1029881298       -1.9534259461        0.2155967581
 H          0.2160536478       -3.5947136354        0.2536708353
 H         -2.0775640243       -2.2223538852        0.2213846281
  24
        -34.17406325
 C         -3.7681203203       -0.0426795460        0.3130974766
 C         -2.9158407036        0.8093247042       -0.2420235498
 C         -1.4627258802        0.7524243230       -0.1424726992
 C         -0.7411655130        1.9388633795       -0.1008007294
 C          0.6386993514        1.9662526488        0.0487744375
 C          1.3998080253        0.8045948439        0.1144302293
 C          2.8503380706        0.8939167618        0.2246424234
 C          3.7342042202        0.0419779255       -0.2819528495
 C          0.6848035702       -0.3988551532        0.0581525206
 N          1.1325248819       -1.6857543332        0.1237073187
 C          0.0690905397       -2.5366044883        0.0266443718
 C         -1.0811111757       -1.8230330646       -0.1038240357
 C         -0.7272637201       -0.4441995275       -0.0660374620
 H         -4.8333908492        0.0817619858        0.2128434397
 H         -3.4381646892       -0.8755642612        0.9087740727
 H         -3.3004223323        1.6678559691       -0.7808398845
 H         -1.2761187725        2.8764211226       -0.1603412325
 H          1.1431887908        2.9211640851        0.0911277105
 H          3.2098235830        1.7770447349        0.7399035971
 H          3.4467753754       -0.8137998729       -0.8698649721
 H          4.7934473334        0.1988334099       -0.1669709884
 H          2.0858100531       -1.9569103113        0.2911959687
 H          0.2147065595       -3.5998941741        0.0517164040
 H         -2.0625433543       -2.2307972775       -0.2328411047
