  24
        -40.18068093
 C         -5.6700577200       -0.8299338598        0.0484531386
 C         -4.3882224945       -1.1681559771       -0.0159450594
 C         -3.2448541855       -0.2619782323       -0.0125965457
 C         -3.3746873256        1.1279644458       -0.0096273562
 C         -2.2519669307        1.9349924802       -0.0053975584
 C         -0.9843592343        1.3856855104       -0.0038881599
 C         -0.8181285224       -0.0022159926       -0.0084394959
 C          0.4801728012       -0.6467117998       -0.0083498640
 C          1.6786217621       -0.0427491178       -0.0017327646
 C          2.9148508598       -0.7767681441       -0.0017908389
 C          4.1112516239       -0.2000490814        0.0046992381
 F          4.3422709893        1.1093709026        0.0119171452
 F          5.2679624983       -0.8564897319        0.0047019167
 C         -1.9616419287       -0.8020771156       -0.0140789989
 H         -6.4458185400       -1.5762670621        0.0415916751
 H         -6.0029057995        0.1916625168        0.1129479931
 H         -4.1271937056       -2.2182325323       -0.0724059224
 H         -4.3535005846        1.5807934568       -0.0141291029
 H         -2.3673336751        3.0092635658       -0.0038756081
 H         -0.1244660563        2.0364855936       -0.0004788746
 H          0.4536821535       -1.7300164499       -0.0139159611
 H          1.7669179511        1.0333453555        0.0041696879
 H          2.8843013536       -1.8553606653       -0.0073959048
 H         -1.8466011655       -1.8778381385       -0.0178233571
