  46
        -81.57829527
 C          1.7277637502       -0.9001574472       -3.5175356048
 O          1.0494955865       -1.4826508764       -2.4152245047
 C          1.7922165367       -2.2641143170       -1.6174617080
 C          0.9845015529       -2.8491369972       -0.5129857548
 C          0.0900301981       -2.0938903764        0.2579669261
 N          0.0034434100       -0.7042290923        0.1229329053
 C         -1.2292023234       -0.0719644373        0.1974806707
 C         -1.3407940227        1.2050722196        0.7531163433
 C         -2.5764706692        1.8239960285        0.8068237509
 C         -2.7150275668        3.1925836773        1.4078863869
 F         -1.5455704293        3.7553231352        1.7419351650
 F         -3.3241822723        4.0556838010        0.5727745873
 F         -3.4613797367        3.1804489671        2.5304086120
 C         -3.7215567059        1.1968673742        0.3297184828
 C         -3.6085059119       -0.0718487794       -0.2135398360
 C         -2.3815845572       -0.7000553854       -0.2848496484
 C          1.1835314100        0.0448112391       -0.0461368155
 C          1.2050716493        1.1583763040       -0.8804580674
 C          2.3746155169        1.8735404834       -1.0551718649
 C          3.5490241932        1.4971570737       -0.4166736014
 C          4.8247490729        2.2554865473       -0.6177095888
 C          3.5175955741        0.3842074551        0.4166626697
 C          2.3539655926       -0.3324140552        0.6080820502
 C         -0.6758732169       -2.7469078559        1.2251954595
 C         -0.5511348024       -4.1069168843        1.4265641986
 C          0.3619410569       -4.8442856532        0.6877908555
 C          1.1289041666       -4.2109333218       -0.2712258769
 O          2.9525976533       -2.5122796389       -1.8220663456
 H          0.9694926590       -0.3914941267       -4.1068285161
 H          2.2224511453       -1.6733899348       -4.1087857497
 H          2.4780298928       -0.1904394917       -3.1628568097
 H         -0.4659344945        1.7028671222        1.1419218267
 H         -4.6748662531        1.6979113247        0.3832411719
 H         -4.4863633829       -0.5700422461       -0.5948585514
 H         -2.2994525982       -1.6821329805       -0.7253687298
 H          0.3064558916        1.4519505168       -1.4025259687
 H          2.3735101703        2.7328903722       -1.7104321411
 H          4.6685264814        3.1199175022       -1.2578831834
 H          5.5762235817        1.6135158446       -1.0762155974
 H          5.2189984076        2.5961854251        0.3386027364
 H          4.4188198419        0.0757925936        0.9253978622
 H          2.3491356396       -1.1906386402        1.2638084380
 H         -1.3612467681       -2.1691972465        1.8278313230
 H         -1.1539028342       -4.5903428355        2.1806617771
 H          0.4745849670       -5.9031037977        0.8603647264
 H          1.8442218788       -4.7631671762       -0.8616603757
