  15
        -20.15809871
 C          2.6808534213       -0.2430643100       -0.0000064862
 C          1.2474708713        0.1530949592        0.0000180501
 C          0.7082460365        1.3975648609        0.0000123595
 C         -0.7082460565        1.3975648560       -0.0000126839
 C         -1.2474708888        0.1530949581       -0.0000204664
 C         -2.6808533879       -0.2430643188        0.0000088375
 S         -0.0000000021       -1.0589195604       -0.0000003576
 H          3.3097503720        0.6442187374        0.0004788205
 H          2.9162112751       -0.8403629307       -0.8808423919
 H          2.9160113240       -0.8412068077        0.8803041929
 H          1.2996762077        2.2963558712        0.0000252453
 H         -1.2996762293        2.2963558569       -0.0000218157
 H         -3.3097503621        0.6442186991       -0.0005184022
 H         -2.9162185715       -0.8403254348        0.8808684568
 H         -2.9160038999       -0.8412443294       -0.8802780919
