  23
        -42.92895657
 F         -5.1598604607        0.2671941361       -0.0172556291
 C         -3.8803163654       -0.0955099672        0.0214344127
 F         -3.8107072338       -1.4112202446        0.1794266303
 C         -2.8804431007        0.7678810828       -0.0866191028
 C         -1.4520226040        0.5040035829       -0.0607880492
 C         -0.5790808075        1.5856559006       -0.2057776276
 C          0.7875546996        1.4079518879       -0.1956282596
 C          1.3248634759        0.1326993374       -0.0329055437
 N          2.7087575081       -0.0518247528       -0.0155505862
 C          3.6517490519        0.8209662340        0.4434688013
 N          4.8553986721        0.3454420728        0.3377731483
 C          4.7189772114       -0.8873008391       -0.2230082472
 C          3.4020987582       -1.1586727695       -0.4399199803
 C          0.4637949220       -0.9522261989        0.1165989368
 C         -0.9032837551       -0.7701079376        0.1005078602
 H         -3.1777414865        1.7992814938       -0.2102306966
 H         -0.9820017206        2.5790265590       -0.3355389318
 H          1.4432884442        2.2544869355       -0.3286686941
 H          3.4093928891        1.7715593432        0.8738368039
 H          5.5756079887       -1.4961509307       -0.4300965580
 H          2.9177552193       -2.0047409097       -0.8807638518
 H          0.8685598809       -1.9420650087        0.2608852400
 H         -1.5424331199       -1.6288611186        0.2206990095
  23
        -42.92765942
 F         -5.1733433918        0.0238479248       -0.0310776580
 C         -3.8742534886        0.3041862855        0.0370196620
 F         -3.7259389181        1.5958847550        0.3025686570
 C         -2.9275988800       -0.6062351969       -0.1417723652
 C         -1.4867972887       -0.4308243556       -0.0949974046
 C         -0.8598155465        0.7895130900        0.1635337466
 C          0.5150454253        0.8884003755        0.1924394226
 C          1.3214864477       -0.2275121590       -0.0358452682
 N          2.7140341331       -0.1225517219       -0.0074185052
 C          3.4615172006        0.9991938781        0.2283301564
 N          4.7366454054        0.7660693889        0.1845696480
 C          4.8610931732       -0.5616840810       -0.0908062366
 C          3.6308656325       -1.1287545347       -0.2131249511
 C          0.6990719304       -1.4493654640       -0.2934652619
 C         -0.6754546442       -1.5443756268       -0.3214105733
 H         -3.2852178910       -1.6044562854       -0.3494834186
 H         -1.4444871371        1.6758834024        0.3450984096
 H          0.9588382682        1.8489181421        0.3955852247
 H          3.0462853632        1.9650060025        0.4274248363
 H          5.8256748730       -1.0184569962       -0.1822494900
 H          3.3581828796       -2.1402161081       -0.4241868082
 H          1.2842117508       -2.3360113218       -0.4744103871
 H         -1.1320627253       -2.5019405211       -0.5233102025
