  26
        -36.72485371
 C          3.4710011726        1.6094049996       -0.3333060854
 C          2.9328859239        0.4663067582        0.0742715269
 C          1.5091918264        0.1559010601        0.0638874907
 C          0.5407524346        1.1612061281        0.1176207561
 C         -0.8136786872        0.8722767192        0.1084112607
 C         -1.8249150489        1.9168626639        0.2043616953
 C         -1.6842802667        3.1548460806       -0.2529609550
 C         -1.1565970793       -0.4992132390        0.0343475728
 N         -2.4486495808       -0.9203684097       -0.0756502835
 N         -2.7784597564       -2.2820086645        0.0762918588
 N         -0.2404723177       -1.4645624491        0.0115679989
 C          1.0495283024       -1.1678749319        0.0281647190
 C          1.9761197486       -2.3447979426       -0.0075493795
 H          4.5340039973        1.7755948638       -0.2951375718
 H          2.8803696813        2.4167272602       -0.7324063436
 H          3.5825679382       -0.3196961335        0.4354035679
 H          0.8538720156        2.1896542240        0.2148534335
 H         -2.7515177369        1.6418594787        0.6954506518
 H         -0.7977541260        3.4747189672       -0.7735281226
 H         -2.4603138668        3.8914656390       -0.1360964952
 H         -3.1908225636       -0.2942007067        0.2005290598
 H         -2.0639954846       -2.7206537765        0.6594319859
 H         -2.7205603525       -2.7330559677       -0.8374520342
 H          1.3907564510       -3.2560752776       -0.0927411173
 H          2.5705756239       -2.3925685651        0.9042094232
 H          2.6540923170       -2.2740000254       -0.8560780971
