  25
        -33.03780443
 C         -4.1509436098       -0.0894071095       -0.1136099888
 C         -3.0477269398        0.6468878790       -0.0346839844
 C         -1.6749673312        0.1674716663       -0.0084327166
 C         -1.3313618977       -1.1854989284       -0.0323181225
 C         -0.0147096000       -1.5857030939       -0.0039975131
 C          1.0290596029       -0.6561983130        0.0458309151
 N          2.3400841406       -1.0528261495       -0.0286095872
 C          2.7636712254       -2.4151536719        0.1694035393
 C          0.7015509231        0.7176731407        0.0901164217
 C          1.7384412749        1.7428504495        0.2057455545
 C          1.6872142372        2.9426568221       -0.3571015986
 C         -0.6340397158        1.0914533553        0.0569705028
 H         -5.1271408412        0.3644821117       -0.1280040811
 H         -4.1323817141       -1.1643315416       -0.1681302286
 H         -3.1451037594        1.7254749092        0.0140280665
 H         -2.1035194474       -1.9382422294       -0.0691963303
 H          0.2111018109       -2.6401393512       -0.0243412237
 H          3.0206093373       -0.3471652833        0.2005749822
 H          2.3569201797       -3.0527581585       -0.6179016713
 H          2.4493121339       -2.8171498912        1.1407632001
 H          3.8492832894       -2.4558182667        0.1108466546
 H          2.5970113689        1.4942215319        0.8218880308
 H          0.8711845275        3.2369154366       -0.9950058424
 H          2.4667529789        3.6712498286       -0.2122509940
 H         -0.8721632433        2.1444002229        0.1107284848
