  49
        -66.00160091
 C         -5.6601504650       -2.2934524595        1.4186527500
 C         -5.3801666082       -1.5576171848        0.3488230808
 C         -4.0828048218       -1.0115651632       -0.0182169890
 C         -3.9711972850       -0.2140265881       -1.1572312250
 C         -2.7634834152        0.3310516351       -1.5425653787
 C         -1.6067390198        0.1250457684       -0.7898506379
 C         -1.7178224000       -0.6857202810        0.3441436918
 C         -2.9207629670       -1.2475819533        0.7176321764
 S         -0.3062160893       -0.9595063802        1.3826490429
 C          0.9681774503       -0.8470207704        0.1518637214
 C          2.1411889393       -1.5415797045        0.3622146639
 C          3.2049239837       -1.4420403684       -0.5350846975
 C          4.4741408027       -2.1261695127       -0.3424937307
 C          4.8179658374       -2.8901632004        0.6882394818
 C          3.0196622757       -0.6453967158       -1.6653326273
 C          1.8398874177        0.0357231133       -1.8837251010
 C          0.7892703656       -0.0295897778       -0.9677223266
 N         -0.3895394355        0.6843792443       -1.1612736792
 C         -0.3515478477        1.9634553424       -1.8392216284
 C          0.6717312090        2.8983182445       -1.1851626759
 C          0.3596048356        3.1393230679        0.2919340747
 C          1.5413918718        3.7582430797        1.0400282818
 C          2.6554349830        2.7575856746        1.3596887868
 C          2.2944534526        1.8124987143        2.4993969091
 H         -6.6581046227       -2.6513405347        1.6047153001
 H         -4.9184385867       -2.5668500473        2.1489746878
 H         -6.1778742355       -1.3153404866       -0.3433548202
 H         -4.8480607102       -0.0226674951       -1.7590234750
 H         -2.7155418370        0.9191646486       -2.4461813654
 H         -2.9456119311       -1.8564501650        1.6071135125
 H          2.2246627555       -2.1444846693        1.2520466401
 H          5.1898749706       -1.9717449488       -1.1413298952
 H          4.1588578770       -3.0828837693        1.5169040728
 H          5.7873187605       -3.3553319012        0.7397630520
 H          3.8168133912       -0.5585431863       -2.3899089461
 H          1.7313357923        0.6262619960       -2.7799478995
 H         -1.3405801319        2.4145411866       -1.7413889285
 H         -0.1319799532        1.8505159310       -2.9091774010
 H          0.6665141864        3.8472822841       -1.7252892898
 H          1.6689789839        2.4691584734       -1.2792646618
 H          0.0931513694        2.1953466626        0.7678743777
 H         -0.5073885575        3.7997070682        0.3703812597
 H          1.1845902799        4.1890016237        1.9780831867
 H          1.9495692213        4.5740426253        0.4379629212
 H          3.5541450372        3.3135354688        1.6374633338
 H          2.8976496633        2.1694100863        0.4721582831
 H          2.0912917633        2.3727301538        3.4097051997
 H          3.1159106637        1.1264027706        2.6928621644
 H          1.4156164665        1.2206413291        2.2597500541
