49
 energy: -66.001600912952 gnorm: 0.000050265851 xtb: 6.4.1 (23d549d)
C        -5.66015046500000   -2.29345245950000    1.41865275000000
C        -5.38016660820000   -1.55761718480000    0.34882308080000
C        -4.08280482180000   -1.01156516320000   -0.01821698900000
C        -3.97119728500000   -0.21402658810000   -1.15723122500000
C        -2.76348341520000    0.33105163510000   -1.54256537870000
C        -1.60673901980000    0.12504576840000   -0.78985063790000
C        -1.71782240000000   -0.68572028100000    0.34414369180000
C        -2.92076296700000   -1.24758195330000    0.71763217640000
S        -0.30621608930000   -0.95950638020000    1.38264904290000
C         0.96817745030000   -0.84702077040000    0.15186372140000
C         2.14118893930000   -1.54157970450000    0.36221466390000
C         3.20492398370000   -1.44204036840000   -0.53508469750000
C         4.47414080270000   -2.12616951270000   -0.34249373070000
C         4.81796583740000   -2.89016320040000    0.68823948180000
C         3.01966227570000   -0.64539671580000   -1.66533262730000
C         1.83988741770000    0.03572311330000   -1.88372510100000
C         0.78927036560000   -0.02958977780000   -0.96772232660000
N        -0.38953943550000    0.68437924430000   -1.16127367920000
C        -0.35154784770000    1.96345534240000   -1.83922162840000
C         0.67173120900000    2.89831824450000   -1.18516267590000
C         0.35960483560000    3.13932306790000    0.29193407470000
C         1.54139187180000    3.75824307970000    1.04002828180000
C         2.65543498300000    2.75758567460000    1.35968878680000
C         2.29445345260000    1.81249871430000    2.49939690910000
H        -6.65810462270000   -2.65134053470000    1.60471530010000
H        -4.91843858670000   -2.56685004730000    2.14897468780000
H        -6.17787423550000   -1.31534048660000   -0.34335482020000
H        -4.84806071020000   -0.02266749510000   -1.75902347500000
H        -2.71554183700000    0.91916464860000   -2.44618136540000
H        -2.94561193110000   -1.85645016500000    1.60711351250000
H         2.22466275550000   -2.14448466930000    1.25204664010000
H         5.18987497060000   -1.97174494880000   -1.14132989520000
H         4.15885787700000   -3.08288376930000    1.51690407280000
H         5.78731876050000   -3.35533190120000    0.73976305200000
H         3.81681339120000   -0.55854318630000   -2.38990894610000
H         1.73133579230000    0.62626199600000   -2.77994789950000
H        -1.34058013190000    2.41454118660000   -1.74138892850000
H        -0.13197995320000    1.85051593100000   -2.90917740100000
H         0.66651418640000    3.84728228410000   -1.72528928980000
H         1.66897898390000    2.46915847340000   -1.27926466180000
H         0.09315136940000    2.19534666260000    0.76787437770000
H        -0.50738855750000    3.79970706820000    0.37038125970000
H         1.18459027990000    4.18900162370000    1.97808318670000
H         1.94956922130000    4.57404262530000    0.43796292120000
H         3.55414503720000    3.31353546880000    1.63746333380000
H         2.89764966330000    2.16941008630000    0.47215828310000
H         2.09129176330000    2.37273015380000    3.40970519970000
H         3.11591066370000    1.12640277060000    2.69286216440000
H         1.41561646650000    1.22064132910000    2.25975005410000
