  17
        -24.38360677
 C         -3.1331159774        1.1508210327        0.0004399773
 C         -2.6437503332       -0.0861911192       -0.0000658902
 C         -1.2473025602       -0.4223270726       -0.0001296190
 C         -0.7003504475       -1.6817197490        0.0001613620
 C          0.7003510393       -1.6817193048        0.0001723811
 C          1.2473025019       -0.4223268498       -0.0001320902
 C          2.6437501084       -0.0861908181       -0.0000856521
 C          3.1331160451        1.1508214816        0.0004349107
 S         -0.0000002464        0.7891570184       -0.0003780425
 H         -4.1916455957        1.3408383892        0.0004296471
 H         -2.4835980716        2.0106367493        0.0006816457
 H         -3.3112102095       -0.9391284685       -0.0003720476
 H         -1.2976875246       -2.5768040133        0.0004172339
 H          1.2976885319       -2.5768033015        0.0004318528
 H          3.3112103203       -0.9391299577       -0.0003485584
 H          2.4835993629        2.0106346989        0.0007752636
 H          4.1916465390        1.3408363048        0.0005315825
  17
        -24.38241425
 C         -3.6747608452       -0.1050958527        0.0005458442
 C         -2.5188746756        0.5549190340        0.0002813195
 C         -1.2151545794       -0.0521828491       -0.0004029784
 C         -0.8557383495       -1.3777473199       -0.0001559567
 C          0.5299890864       -1.5770408029        0.0002043265
 C          1.2559990804       -0.4105878128        0.0001384602
 C          2.6863592158       -0.2813517159        0.0010741072
 C          3.3504617364        0.8713509235       -0.0005281472
 S          0.1953824868        0.9649312081       -0.0005489681
 H         -4.6156625060        0.4159719712        0.0014552242
 H         -3.7213928701       -1.1801598472       -0.0001065788
 H         -2.5180345486        1.6373368258        0.0009142150
 H         -1.5689803870       -2.1820143077       -0.0001231359
 H          0.9922824019       -2.5489175979        0.0005504751
 H          3.2224409695       -1.2223800999        0.0034585659
 H          2.8330449607        1.8166537866       -0.0030563682
 H          4.4253429108        0.9054353706        0.0005820637
  17
        -24.38117006
 C         -3.6749283856       -0.4413805451        0.0023969806
 C         -2.6281961789        0.3808461572       -0.0008581066
 C         -1.2497805559       -0.0289208846       -0.0004903099
 C         -0.6996118985       -1.2883690214        0.0013585560
 C          0.6996086975       -1.2883684786        0.0015366072
 C          1.2497787437       -0.0289169630       -0.0002118988
 C          2.6281966651        0.3808477405       -0.0002079151
 C          3.6749390318       -0.4413772017        0.0016766632
 S         -0.0000037288        1.1776499992       -0.0023498969
 H         -4.6818872127       -0.0634607531        0.0020861607
 H         -3.5637198265       -1.5117122971        0.0056496934
 H         -2.7862288122        1.4517213187       -0.0037456800
 H         -1.2896842110       -2.1870589940        0.0024318037
 H          1.2896847934       -2.1870560127        0.0028605773
 H          2.7862328675        1.4517224605       -0.0017184746
 H          3.5637586628       -1.5116879723        0.0033450776
 H          4.6818894240       -0.0634386630        0.0018635054
