  46
        -62.55164717
 C         -7.9742611646       -0.5420816250       -0.7096548789
 C         -7.1386196874        0.0134872103        0.1600139773
 C         -5.6829733738        0.0082161006        0.0997183060
 C         -4.9632052389        0.6946834063        1.0798523866
 C         -3.5842145991        0.7289747082        1.0640140084
 C         -2.8704923877        0.0689544209        0.0675885070
 C         -1.3969854781        0.0694600895        0.0490946077
 C         -0.7346558873       -1.1533972928        0.0276949332
 C          0.6475665032       -1.2528107036        0.0325395615
 C          1.2885948109       -2.6088261953       -0.0055988638
 C          1.3970060945       -0.0732449343        0.0459836750
 C          2.8705099543       -0.0724867306        0.0631807608
 C          3.5821488752        0.6305264041       -0.9064641600
 C          4.9609441908        0.6576028513       -0.8951116910
 C          5.6830409196       -0.0093060556        0.0960858712
 C          7.1386172044       -0.0127705667        0.1576947573
 C          7.9741176695        0.5702580848       -0.6939887776
 C          4.9636645731       -0.7003162776        1.0733254974
 C          3.5847194404       -0.7352382796        1.0574720737
 C          0.7346135176        1.1496166067        0.0275320670
 C         -0.6476078332        1.2490105461        0.0355927097
 C         -1.2886874735        2.6050728471        0.0006668390
 C         -3.5825143410       -0.6310978539       -0.9039063233
 C         -4.9613253544       -0.6568697456       -0.8930004979
 H         -9.0409556780       -0.4816976664       -0.5771400807
 H         -7.6395900004       -1.0740746970       -1.5836378358
 H         -7.5487379376        0.5383108041        1.0150493089
 H         -5.4992600050        1.2092002477        1.8656030907
 H         -3.0498036446        1.2543998157        1.8417507563
 H         -1.3250555965       -2.0597013853        0.0214381309
 H          0.6746212471       -3.2988658443       -0.5811338605
 H          1.3851037187       -3.0136145082        1.0022567108
 H          2.2801349067       -2.5628648005       -0.4495627952
 H          3.0400021200        1.1475291360       -1.6857564081
 H          5.4825395944        1.2050818090       -1.6650573330
 H          7.5489299664       -0.5593534249        0.9989149939
 H          7.6394804023        1.1271796414       -1.5523120578
 H          9.0407430526        0.5093851274       -0.5611036171
 H          5.4999804188       -1.2169680513        1.8574954415
 H          3.0506916398       -1.2633713601        1.8336101158
 H          1.3249521781        2.0559527826        0.0213232090
 H         -0.6779352931        3.2949346226       -0.5785207886
 H         -1.3792079195        3.0099399190        1.0090474442
 H         -2.2827846827        2.5592526596       -0.4375424637
 H         -3.0405761707       -1.1468215190       -1.6841763337
 H         -5.4832834551       -1.2030522480       -1.6636141235
