46
 energy: -62.551647168072 gnorm: 0.000079164879 xtb: 6.4.1 (23d549d)
C        -7.97426116460000   -0.54208162500000   -0.70965487890000
C        -7.13861968740000    0.01348721030000    0.16001397730000
C        -5.68297337380000    0.00821610060000    0.09971830600000
C        -4.96320523890000    0.69468340630000    1.07985238660000
C        -3.58421459910000    0.72897470820000    1.06401400840000
C        -2.87049238770000    0.06895442090000    0.06758850700000
C        -1.39698547810000    0.06946008950000    0.04909460770000
C        -0.73465588730000   -1.15339729280000    0.02769493320000
C         0.64756650320000   -1.25281070360000    0.03253956150000
C         1.28859481090000   -2.60882619530000   -0.00559886380000
C         1.39700609450000   -0.07324493430000    0.04598367500000
C         2.87050995430000   -0.07248673060000    0.06318076080000
C         3.58214887520000    0.63052640410000   -0.90646416000000
C         4.96094419080000    0.65760285130000   -0.89511169100000
C         5.68304091960000   -0.00930605560000    0.09608587120000
C         7.13861720440000   -0.01277056670000    0.15769475730000
C         7.97411766950000    0.57025808480000   -0.69398877760000
C         4.96366457310000   -0.70031627760000    1.07332549740000
C         3.58471944040000   -0.73523827960000    1.05747207370000
C         0.73461351760000    1.14961660670000    0.02753206700000
C        -0.64760783320000    1.24901054610000    0.03559270970000
C        -1.28868747350000    2.60507284710000    0.00066683900000
C        -3.58251434100000   -0.63109785390000   -0.90390632330000
C        -4.96132535440000   -0.65686974560000   -0.89300049790000
H        -9.04095567800000   -0.48169766640000   -0.57714008070000
H        -7.63959000040000   -1.07407469700000   -1.58363783580000
H        -7.54873793760000    0.53831080410000    1.01504930890000
H        -5.49926000500000    1.20920024770000    1.86560309070000
H        -3.04980364460000    1.25439981570000    1.84175075630000
H        -1.32505559650000   -2.05970138530000    0.02143813090000
H         0.67462124710000   -3.29886584430000   -0.58113386050000
H         1.38510371870000   -3.01361450820000    1.00225671080000
H         2.28013490670000   -2.56286480050000   -0.44956279520000
H         3.04000212000000    1.14752913600000   -1.68575640810000
H         5.48253959440000    1.20508180900000   -1.66505733300000
H         7.54892996640000   -0.55935342490000    0.99891499390000
H         7.63948040230000    1.12717964140000   -1.55231205780000
H         9.04074305260000    0.50938512740000   -0.56110361710000
H         5.49998041880000   -1.21696805130000    1.85749544150000
H         3.05069163980000   -1.26337136010000    1.83361011580000
H         1.32495217810000    2.05595278260000    0.02132320900000
H        -0.67793529310000    3.29493462260000   -0.57852078860000
H        -1.37920791950000    3.00993991900000    1.00904744420000
H        -2.28278468270000    2.55925265960000   -0.43754246370000
H        -3.04057617070000   -1.14682151900000   -1.68417633370000
H        -5.48328345510000   -1.20305224800000   -1.66361412350000
