  26
        -37.65035635
 C         -3.3573367270       -0.2949802984       -2.0515228315
 C         -2.6859103934        0.0448578518       -0.7573521683
 C         -3.4121015135        0.5434308433        0.3242228457
 C         -2.7372982422        0.8445460291        1.4931625704
 C         -1.3699565482        0.6326456837        1.5533234407
 C         -0.7273299123        0.1243850547        0.4252509180
 C          0.7273631393       -0.1239211472        0.4252898981
 C          1.3698795320       -0.6321158987        1.5534566006
 C          2.7371467384       -0.8444868741        1.4932770399
 C          3.4119976626       -0.5438279886        0.3242417709
 C          2.6859461432       -0.0451095874       -0.7573513538
 C          3.3574883181        0.2945232308       -2.0515212906
 N          1.3811996270        0.1542969299       -0.6966404030
 N         -1.3811084123       -0.1541610940       -0.6966364248
 H         -4.1117887607       -1.0647269099       -1.8965628300
 H         -2.6153961307       -0.6548627541       -2.7574611673
 H         -3.8507037065        0.5837856504       -2.4634029623
 H         -4.4782945021        0.6930074454        0.2423149701
 H         -3.2676108906        1.2418469735        2.3475044817
 H         -0.8109923588        0.8759999897        2.4437516834
 H          0.8108699092       -0.8751043860        2.4439534381
 H          3.2673471272       -1.2418420662        2.3476463229
 H          4.4781212126       -0.6938565969        0.2422819747
 H          4.1104691705        1.0657682244       -1.8968876449
 H          2.6153634366        0.6524802592       -2.7582115594
 H          3.8526802309       -0.5837507324       -2.4622428978
