  17
        -32.83248143
 C          1.5732156103       -2.5834392878       -0.5042592788
 C          0.8146894342       -1.7126318468        0.1470692496
 C          0.9880174295       -0.2696939229        0.1102240770
 C          2.1828823041        0.3576836144       -0.0958414331
 S          2.0794262886        2.0639849588        0.0399135577
 C          0.4063358236        1.9623289320        0.3903874340
 C         -0.0556793696        0.6771610456        0.3838673434
 C         -1.4581421676        0.3673650975        0.6160574154
 C         -2.1644810896       -0.5546601427       -0.0174475232
 F         -1.7559014223       -1.3564107188       -0.9922231844
 F         -3.4518483288       -0.7915169357        0.2315748374
 H          1.4071338933       -3.6432703090       -0.4242617396
 H          2.3725089509       -2.2698185338       -1.1538326007
 H          0.0016460853       -2.0634588757        0.7692470391
 H          3.1342150783       -0.0952237365       -0.2894208597
 H         -0.1583888586        2.8582748975        0.5563136099
 H         -1.9894842924        0.9727820537        1.3351432123
