  48
        -55.80422190
 C          3.2583472670        2.8452571321        1.5146786300
 C          3.4421059616        1.6565632975        0.9496008733
 C          2.3949511501        0.7920540849        0.4551797672
 C          1.0410914158        0.9969826755        0.5292599783
 N          0.3684282842       -0.0440289476       -0.0492339610
 Si        -1.3999370688       -0.1506573344       -0.1364729859
 C         -2.0592214848        0.0986298977        1.6641879924
 C         -1.0702878457       -0.4232004335        2.7103605215
 C         -2.4350986266        1.5380303697        2.0140155295
 C         -1.9459390567        1.1248442612       -1.4751539715
 C         -3.4648724494        1.1679554689       -1.6423493576
 C         -1.4007593512        2.5367959874       -1.2656321373
 C         -1.9938766192       -1.8867171204       -0.7249571546
 C         -1.6662771581       -2.1839802613       -2.1883299440
 C         -1.5155845679       -3.0320284182        0.1671015397
 C          1.3082296409       -0.9267725238       -0.4988153038
 C          2.5696968055       -0.4684636861       -0.2155484504
 C          3.8274086629       -1.1098658076       -0.5239881383
 C          3.9672455541       -2.2992368444       -1.1000564212
 H          4.0869224031        3.4380726363        1.8622369702
 H          2.2788623563        3.2711093212        1.6498035487
 H          4.4510778882        1.2819434401        0.8370311944
 H          0.5028626084        1.8164027542        0.9590634321
 H         -2.9748685904       -0.4973937621        1.7535963628
 H         -0.1626808983        0.1751099661        2.7130231281
 H         -0.7887492159       -1.4536702132        2.5141960091
 H         -1.5132907142       -0.3725959900        3.7040387535
 H         -1.5652406042        2.1885287698        1.9731748502
 H         -2.8363328748        1.5845748777        3.0258220627
 H         -3.1901599171        1.9256784636        1.3359465903
 H         -1.5258774050        0.7724476181       -2.4248440521
 H         -3.9457942416        1.5291972043       -0.7370467713
 H         -3.8620910467        0.1812720674       -1.8650389564
 H         -3.7382195220        1.8366196708       -2.4573358246
 H         -1.7924053752        2.9788636904       -0.3540512953
 H         -1.6900983107        3.1762522912       -2.0987831165
 H         -0.3153877096        2.5264330212       -1.2100099383
 H         -3.0875847896       -1.8697854133       -0.6480533112
 H         -0.5944663561       -2.1878477833       -2.3646119314
 H         -2.1131294068       -1.4435298832       -2.8459301719
 H         -2.0562102274       -3.1617921429       -2.4694213213
 H         -0.4307710462       -3.0740243419        0.2125654258
 H         -1.8751773572       -3.9854542002       -0.2187733438
 H         -1.8956118228       -2.9166561144        1.1784454619
 H          1.0161177216       -1.8257454232       -0.9988992440
 H          4.7152346373       -0.5544460755       -0.2511384428
 H          3.1220726014       -2.8990806830       -1.3911371909
 H          4.9387785091       -2.7171833013       -1.3007209124
