  25
        -37.88727579
 C          3.9220986350        0.3052642391       -0.5204824738
 C          3.0683705154       -0.4819340864        0.1228190069
 C          1.6065595370       -0.3809335106        0.1168096108
 C          0.8966417495       -1.5702136227        0.0595749711
 C         -0.4879295721       -1.5266373851        0.0038707146
 N         -1.4126614998       -2.5425016778       -0.0471971980
 C         -2.5650165465       -1.9567443181       -0.0497751337
 N         -2.4863871061       -0.5924580715       -0.0127611478
 C         -1.1523164439       -0.2810490823        0.0223021370
 C         -0.4730232550        0.9327608400        0.1301176872
 C         -1.1968169442        2.1981003655        0.2250680022
 C         -2.2896621177        2.5061438688       -0.4622144491
 C          0.9294885497        0.8670621724        0.1794196005
 N          1.6632712991        2.0348731424        0.2369712058
 H          4.9839858944        0.1268020066       -0.4811029547
 H          3.5981458038        1.1218354745       -1.1431994724
 H          3.4525335364       -1.3338805694        0.6724161109
 H          1.4129292419       -2.5166799232        0.0372821394
 H         -3.5057580064       -2.4719571317       -0.0832409397
 H         -3.2494244282        0.0604653831        0.0407672096
 H         -0.8066040066        2.9245114970        0.9314505800
 H         -2.6953195173        1.8508615829       -1.2151791818
 H         -2.7961686711        3.4468902732       -0.3280345517
 H          1.1672804609        2.8514906139        0.5558094433
 H          2.5958462474        1.9365050181        0.6086415815
