29
 energy: -37.048122615905 gnorm: 0.000019175281 xtb: 6.4.1 (23d549d)
C        -3.79831251080000   -1.72096407470000   -0.52469640180000
C        -2.63043071930000   -1.92213787450000    0.07967868770000
C        -1.60074397120000   -0.93326745310000    0.23637379510000
C        -0.38613022090000   -1.09579576810000    0.85201112740000
C         0.42014099260000    0.05730265220000    0.85546407280000
C         1.79815443350000    0.08725690970000    1.44072467320000
C         2.88082223430000   -0.03354093210000    0.35959483160000
C         2.82749567460000   -1.37376836380000   -0.36864540330000
C         3.91908895010000   -1.48250833590000   -1.42569969230000
C        -0.18804654960000    1.12354749570000    0.22673940630000
C         0.32888180600000    2.45155916600000    0.04634392980000
C        -0.28008469520000    3.42195221760000   -0.63070068690000
S        -1.76710215910000    0.68767173490000   -0.36536249030000
H        -4.53304398340000   -2.50150993520000   -0.61151000080000
H        -4.05086552010000   -0.76391712850000   -0.95056557050000
H        -2.39203658110000   -2.89026196220000    0.50275634910000
H        -0.08080362720000   -2.02775322120000    1.29613070190000
H         1.90201402500000   -0.74153893890000    2.14413535300000
H         1.94705044520000    1.01752122170000    1.99385594310000
H         3.86113687680000    0.08249122320000    0.82834658300000
H         2.75789125810000    0.77357686660000   -0.36606654230000
H         1.85057438400000   -1.48831056210000   -0.84333032750000
H         2.94257010820000   -2.18352158050000    0.35609113070000
H         3.80917144970000   -0.69547789650000   -2.16871106530000
H         3.86650946570000   -2.44285215360000   -1.93323747000000
H         4.90307249270000   -1.38808033790000   -0.97074785990000
H         1.28814726890000    2.63902176140000    0.51090961860000
H        -1.23269323950000    3.26188300300000   -1.10809042870000
H         0.15413278140000    4.40105677440000   -0.72913568400000
