56
 energy: -64.420552734169 gnorm: 0.000140592578 xtb: 6.4.1 (23d549d)
C         1.76269606240000   -3.07804027910000    1.12078228630000
C         1.97560510610000   -2.18826740320000    0.16034168570000
C         0.96781540730000   -1.26891929340000   -0.36431643070000
C        -0.36465003320000   -1.66871866230000   -0.43893188310000
C        -1.36570665320000   -0.85238074250000   -0.93508521400000
C        -2.78622369470000   -1.34099180020000   -0.93938600140000
C        -3.61098702960000   -0.65454546410000    0.15513194890000
C        -5.06583210070000   -1.11607252290000    0.13733280810000
C        -5.90702318660000   -0.50305037280000    1.25709655000000
C        -6.14041114470000    0.99698542070000    1.08939715400000
C        -7.06690260240000    1.54363917040000    2.16887333790000
C        -1.02778786300000    0.43732459200000   -1.36913127350000
C        -2.03404507150000    1.35351737780000   -1.90252203450000
C        -2.01154351890000    2.67163534090000   -1.75607072610000
C         0.30557556330000    0.83457032110000   -1.30133661690000
C         1.30886913450000    0.01310918660000   -0.81809127450000
C         2.71537568400000    0.53379607760000   -0.73421590040000
C         3.08600148340000    0.86876499510000    0.71521204770000
C         4.49078734980000    1.45338623740000    0.85782035990000
C         5.59921911550000    0.44447169880000    0.56480117320000
C         6.98428496560000    1.02496909620000    0.84097723640000
C         8.09094886740000    0.02224001320000    0.53803784820000
H         2.54143384270000   -3.73860086050000    1.46286393020000
H         0.81112151830000   -3.16878151760000    1.61751366260000
H         2.96239693030000   -2.11431343000000   -0.27828243180000
H        -0.62122954090000   -2.66716923250000   -0.11442562940000
H        -2.79941661460000   -2.42062361780000   -0.77430895830000
H        -3.25166662240000   -1.15051151160000   -1.90971788980000
H        -3.55990822970000    0.42521989830000    0.00896990120000
H        -3.16778960170000   -0.88028786340000    1.12803982930000
H        -5.09034861660000   -2.20463890970000    0.23589212700000
H        -5.51356732330000   -0.86338681400000   -0.82720678750000
H        -5.41869425020000   -0.68710195140000    2.21702028210000
H        -6.87763794800000   -1.00547967550000    1.27990223960000
H        -6.57916920610000    1.18455590210000    0.10649889160000
H        -5.18765749270000    1.52688481690000    1.13540872770000
H        -8.03554302520000    1.04964712700000    2.12815572730000
H        -7.22110969130000    2.61220142930000    2.03727849340000
H        -6.64072859800000    1.37769828120000    3.15605125180000
H        -2.85081881050000    0.89832872270000   -2.44787672610000
H        -1.24255465670000    3.17232134850000   -1.19162148710000
H        -2.77637471070000    3.30108040700000   -2.17866644380000
H         0.56797207920000    1.81918638750000   -1.66161233310000
H         2.80500656730000    1.43705915180000   -1.34170672080000
H         3.41348356350000   -0.20510952270000   -1.13076476210000
H         3.00331312850000   -0.03339891360000    1.32542652630000
H         2.35962295780000    1.59106393570000    1.09648393410000
H         4.61250574030000    1.81673350490000    1.88152987940000
H         4.59668066170000    2.31206827630000    0.19014979770000
H         5.55165809860000    0.13306519500000   -0.48040668250000
H         5.45044781560000   -0.44289106690000    1.18518877460000
H         7.04647102650000    1.32788928750000    1.88886274280000
H         7.12796015960000    1.91935306010000    0.23006894130000
H         7.97461049740000   -0.87007465990000    1.14956393100000
H         9.06748777760000    0.45432561300000    0.74415009570000
H         8.06144249900000   -0.27468019520000   -0.50828677100000
