  29
        -37.04545522
 C         -3.2167589397       -2.7007333143        0.2459241250
 C         -2.9813132527       -1.4096276796        0.4672012459
 C         -1.7884301413       -0.7043302437        0.0822666505
 C         -0.6711776821       -1.1498119428       -0.5743626880
 C          0.3132425718       -0.1633258991       -0.7773006056
 C          1.6184700394       -0.4812837250       -1.4394052837
 C          2.4346481523       -1.4953415697       -0.6257914284
 C          2.7344424340       -1.0419178728        0.8030664208
 C          3.6767479860        0.1535258158        0.8732686329
 C         -0.0593850954        1.0655381279       -0.2729658646
 C          0.6588414852        2.3095669409       -0.3106983031
 C          0.2660398297        3.4354240923        0.2797978235
 S         -1.6360538829        0.9834696536        0.4632234347
 H         -4.1342735888       -3.1638594115        0.5629709465
 H         -2.5070535624       -3.3354709729       -0.2556031307
 H         -3.7224830748       -0.8074587804        0.9768455580
 H         -0.5564958153       -2.1645395337       -0.9111036511
 H          2.2046101919        0.4239003218       -1.5892586422
 H          1.4171641927       -0.9121394555       -2.4247774903
 H          3.3749197495       -1.6861438857       -1.1486588070
 H          1.8834065482       -2.4370738660       -0.5813033487
 H          3.1870754369       -1.8797635365        1.3391496949
 H          1.7975801024       -0.7955037819        1.3075093924
 H          4.5923755257       -0.0485554531        0.3207882787
 H          3.9400503744        0.3630536414        1.9075104590
 H          3.2101565548        1.0438333162        0.4613963051
 H          1.5807820298        2.2995468877       -0.8773374325
 H         -0.6468212462        3.4834484798        0.8500828510
 H          0.8435762769        4.3401863292        0.2113941093
