  54
        -60.20058557
 C         -7.0674105291        0.9489477445       -0.3338213861
 C         -5.9875088335        0.4076286310       -1.2631394882
 C         -4.6025335218        0.9970671230       -0.9903945725
 C         -4.0387690778        0.7173392363        0.4046640084
 C         -3.8516750312       -0.7612445621        0.7448365935
 C         -2.7615129655       -1.4596815314       -0.0823997488
 C         -1.3936047074       -0.9108304519        0.2130290276
 C         -0.8809454834        0.1071543974       -0.5787827413
 C          0.3534956645        0.6945003382       -0.3438706295
 C          0.8322059666        1.8007611491       -1.2383064585
 C          1.1113421110        0.2415990431        0.7358516974
 C          2.4746933025        0.7932218937        1.0462612235
 C          3.5635168025       -0.0110515118        0.3259450515
 C          4.9534619644        0.5593091855        0.5943206667
 C          6.0830179822       -0.2884122332        0.0070458916
 C          6.0676948687       -0.4175414902       -1.5171597809
 C          6.2255866190        0.9169412588       -2.2364854563
 C          0.6071537220       -0.7872288185        1.5184612607
 C         -0.6267168467       -1.3746358928        1.2837074572
 C         -1.0897771167       -2.4987984657        2.1637647463
 H         -8.0452979789        0.5807424869       -0.6368409192
 H         -7.0860617873        2.0364472813       -0.3651592623
 H         -6.8927641655        0.6368695926        0.6925671554
 H         -6.2591269778        0.6459297528       -2.2949592581
 H         -5.9506783696       -0.6802217384       -1.1829976505
 H         -4.6546347852        2.0813542600       -1.1209179626
 H         -3.9119206519        0.6148401321       -1.7446974279
 H         -4.7016191541        1.1620949715        1.1495451170
 H         -3.0719409689        1.2187958064        0.4923465905
 H         -4.7942870603       -1.2938205434        0.6069217908
 H         -3.5893249345       -0.8312816748        1.8028373874
 H         -2.9827806885       -1.3368436874       -1.1436927475
 H         -2.7906148383       -2.5280938355        0.1393119351
 H         -1.4661977524        0.4546812227       -1.4193497565
 H          0.1254843299        1.9680717261       -2.0476580717
 H          1.8016539063        1.5626363573       -1.6724079602
 H          0.9343495927        2.7304832742       -0.6781062773
 H          2.6516042715        0.7410037960        2.1232961570
 H          2.5434650639        1.8399870606        0.7472256174
 H          3.3578501365       -0.0059452225       -0.7453328837
 H          3.5217023726       -1.0491831331        0.6638084293
 H          5.1033116174        0.6228891696        1.6756166693
 H          5.0116369332        1.5756619937        0.2005734490
 H          6.0297284899       -1.2907283541        0.4399342679
 H          7.0375542756        0.1501977304        0.3098280032
 H          5.1415907754       -0.8975509302       -1.8377104765
 H          6.8910485377       -1.0744556352       -1.8090741650
 H          5.3666736645        1.5599011064       -2.0627569700
 H          6.3164628013        0.7588374681       -3.3089709767
 H          7.1182835962        1.4332436964       -1.8893846865
 H          1.2036146757       -1.1421222879        2.3485759749
 H         -0.3577939428       -2.6967354042        2.9431396722
 H         -1.2230682801       -3.4107841512        1.5815714506
 H         -2.0408331038       -2.2644605868        2.6382971399
