  41
        -72.31027922
 C          0.6614847415       -4.3854190155        1.9434697552
 O          1.6472013273       -4.3275932650        0.9398928463
 C          1.8890938908       -3.1386709600        0.3299264141
 C          1.2370855077       -1.9498551180        0.6317508416
 C          1.5391585649       -0.7878214193       -0.0733838259
 N          0.8770966244        0.4229374438        0.2172697953
 C          1.7468871665        1.5072703867        0.4579822736
 C          2.7848347002        1.7687024148       -0.4352128786
 S          3.0097345474        0.7052359231       -1.8358718257
 C          3.6442813191        2.8359497323       -0.2268747900
 C          3.4833991693        3.6408463275        0.8856924828
 C          2.4888150542        3.3559625863        1.8077156873
 C          1.6336247109        2.2883036269        1.6035254377
 C         -0.4956790633        0.5646804616        0.1401020034
 C         -1.1107679777        1.8061438449        0.3425947750
 C         -2.4779305554        1.9369763366        0.2624895732
 C         -3.3036434194        0.8489710632       -0.0316051272
 C         -4.7376720948        1.0563732073       -0.0742094696
 C         -5.6956958834        0.1629975620       -0.2769949674
 F         -5.5673880279       -1.1446561292       -0.4886816699
 F         -6.9939747303        0.4746560676       -0.2907768563
 C         -2.6839370660       -0.3751862595       -0.2928797183
 C         -1.3165385988       -0.5123689473       -0.2172336511
 C          2.5530254627       -0.8046151997       -1.0241230413
 C          3.2145917817       -1.9887581537       -1.3181861554
 C          2.8736480238       -3.1502091181       -0.6629176314
 H          0.6363900427       -5.4234945968        2.2702969784
 H         -0.3235376141       -4.1045584324        1.5572976310
 H          0.9158660662       -3.7451423371        2.7941534808
 H          0.4866031417       -1.8980925553        1.4043276001
 H          4.4282076576        3.0269184212       -0.9431120571
 H          4.1453125043        4.4784995386        1.0419462928
 H          2.3798410636        3.9640515408        2.6927717400
 H          0.8673684329        2.0538878267        2.3272686007
 H         -0.5125265059        2.6813966209        0.5399906528
 H         -2.9206087677        2.9084532122        0.4282241050
 H         -5.0830635523        2.0678391437        0.0855476971
 H         -3.2725637411       -1.2340697481       -0.5708095868
 H         -0.8763631035       -1.4647773247       -0.4665837908
 H          3.9877684064       -1.9881611080       -2.0701300788
 H          3.3665748409       -4.0817144320       -0.8872628949
  41
        -72.31020022
 C          2.6181528606       -5.4620026151        1.2251965994
 O          1.8532312302       -4.2881834062        1.3617388981
 C          2.1572959764       -3.2186477444        0.5795272794
 C          1.3662125744       -2.0873652958        0.7794049278
 C          1.5601008431       -0.9433385903        0.0224705752
 N          0.7607862565        0.2027265509        0.2030291126
 C          1.4975837688        1.3888302790        0.4033125771
 C          2.5412528682        1.7074669787       -0.4638884516
 S          2.9410483004        0.5914599616       -1.7825203889
 C          3.2718282563        2.8728763004       -0.2939589819
 C          2.9746066983        3.7227733933        0.7552502468
 C          1.9736221917        3.3888147304        1.6537455371
 C          1.2477158843        2.2234622991        1.4880214553
 C         -0.6167650309        0.1900239716        0.0784829440
 C         -1.3104647801       -0.9930011306       -0.2025520711
 C         -2.6797421228       -0.9921764803       -0.3360802635
 C         -3.4292300014        0.1801782700       -0.2101636567
 C         -4.8705912030        0.1002653242       -0.3420514238
 C         -5.7661330765        1.0712524695       -0.2318268021
 F         -5.5545552573        2.3589029802        0.0284942916
 F         -7.0792384355        0.8724866945       -0.3735052447
 C         -2.7300779067        1.3682094018        0.0142575112
 C         -1.3600699807        1.3747769965        0.1477040870
 C          2.6153520218       -0.9063303924       -0.8902646373
 C          3.4091732537       -2.0220373154       -1.0823963800
 C          3.1750985927       -3.1844450400       -0.3693407630
 H          2.2045943316       -6.1667534138        1.9446126527
 H          3.6725642426       -5.2837625499        1.4585921988
 H          2.5333351772       -5.8822301066        0.2180172526
 H          0.5947435844       -2.1228207884        1.5319535203
 H          4.0628079433        3.1040085375       -0.9904224883
 H          3.5353304586        4.6360141514        0.8809613460
 H          1.7587480874        4.0356567787        2.4905603151
 H          0.4766563773        1.9522633300        2.1933649983
 H         -0.7724920691       -1.9171869787       -0.3392508402
 H         -3.1846375834       -1.9235490617       -0.5478628147
 H         -5.2811533271       -0.8766727659       -0.5542411758
 H         -3.2571101536        2.3059825843        0.0778943801
 H         -0.8581481737        2.3193976030        0.2846633501
 H          4.2101560697       -1.9807841564       -1.8039203590
 H          3.8000019807       -4.0432118609       -0.5513322002
  41
        -72.31017341
 C          1.9988076987       -5.4147559658        1.1092357536
 O          1.3950978208       -4.1571629782        1.2981743215
 C          1.8036372080       -3.1163229333        0.5258264120
 C          1.1621910561       -1.9019954899        0.7705109446
 C          1.4719233417       -0.7741098021        0.0282861047
 N          0.8224755780        0.4560574329        0.2535309215
 C          1.7022689615        1.5404687565        0.4514491277
 C          2.7526775943        1.7492862747       -0.4408248806
 S          2.9784734884        0.6211949079       -1.7898154644
 C          3.6221391520        2.8155112580       -0.2730036152
 C          3.4578534530        3.6737386088        0.7984275558
 C          2.4487220344        3.4440986411        1.7202613682
 C          1.5838869002        2.3774554561        1.5565074347
 C         -0.5489121565        0.6134090253        0.1641994656
 C         -1.1391421085        1.8787541629        0.2692460662
 C         -2.5025855289        2.0317373363        0.1670813094
 C         -3.3482692508        0.9424354692       -0.0565457978
 C         -4.7767370222        1.1769247207       -0.1328637791
 C         -5.7508622492        0.2963784948       -0.3136618914
 F         -5.6497339852       -1.0212251951       -0.4689467680
 F         -7.0414275590        0.6365836862       -0.3656762261
 C         -2.7526469864       -0.3108525094       -0.2158585830
 C         -1.3892190253       -0.4710467326       -0.1150839425
 C          2.4973958666       -0.8452403137       -0.9156576002
 C          3.1436346216       -2.0444387326       -1.1526415034
 C          2.7901749340       -3.1850489713       -0.4538164458
 H          1.5206100492       -6.0800548735        1.8261122616
 H          3.0740965548       -5.3785420279        1.3106939274
 H          1.8297211671       -5.7934901290        0.0962976343
 H          0.4134204842       -1.8604044064        1.5453133910
 H          4.4159713454        2.9642486068       -0.9884353516
 H          4.1276227378        4.5104979586        0.9229136218
 H          2.3361224116        4.0951604267        2.5737359068
 H          0.8049582668        2.1862529779        2.2793010507
 H         -0.5244234408        2.7538926325        0.4086639272
 H         -2.9257770086        3.0216417825        0.2577677139
 H         -5.1027386263        2.2018700865       -0.0262828074
 H         -3.3572308994       -1.1770447295       -0.4289078703
 H         -0.9694605862       -1.4505580851       -0.2775617904
 H          3.9227016301       -2.0848779855       -1.8978392592
 H          3.3000160289       -4.1091707620       -0.6709660946
  41
        -72.31015812
 C          1.1364956296       -4.6031217136        1.9661641078
 O          2.1322622356       -4.4424180200        0.9843276003
 C          2.2498388129       -3.2393491425        0.3643921770
 C          1.4512713691       -2.1340680835        0.6285631068
 C          1.6358807344       -0.9515390924       -0.0831665740
 N          0.8258765702        0.1742363036        0.1710075796
 C          1.5529760501        1.3572046140        0.4222137618
 C          2.5790813735        1.7312955435       -0.4439889685
 S          2.9727622155        0.6872615891       -1.8220309827
 C          3.2987138485        2.8955481999       -0.2257923710
 C          3.0093729405        3.6867981857        0.8704477403
 C          2.0284738742        3.2945961002        1.7673562834
 C          1.3130253282        2.1304269824        1.5533697010
 C         -0.5503900625        0.1510184298        0.0442718756
 C         -1.3170362046        1.3097747172        0.2184792989
 C         -2.6872424986        1.2860138367        0.0899464689
 C         -3.3639763909        0.1075640767       -0.2329783274
 C         -4.8041381334        0.0102657089       -0.3659803467
 C         -5.7182474595        0.9480972603       -0.1609796420
 F         -5.5304755422        2.2088713151        0.2203258331
 F         -7.0276481161        0.7368975845       -0.3157561497
 C         -2.5919278501       -1.0337643852       -0.4639239382
 C         -1.2222651049       -1.0172451404       -0.3362895186
 C          2.6741528929       -0.8574150887       -1.0026322124
 C          3.4804204435       -1.9575161276       -1.2597421269
 C          3.2595892965       -3.1441808265       -0.5980992514
 H          1.2270268171       -5.6320113848        2.3101124906
 H          0.1346278702       -4.4472342592        1.5532603467
 H          1.2918343457       -3.9248749036        2.8112381277
 H          0.6749072294       -2.1637224364        1.3764100863
 H          4.0756411145        3.1715438271       -0.9216662374
 H          3.5615572597        4.5992444991        1.0338831581
 H          1.8209020811        3.8944721890        2.6402260346
 H          0.5586176306        1.8136786216        2.2578737390
 H         -0.8332838349        2.2491741554        0.4334257128
 H         -3.2328222801        2.2037473395        0.2357607445
 H         -5.1962669204       -0.9503124881       -0.6684734114
 H         -3.0792453165       -1.9527144188       -0.7564352712
 H         -0.6645896358       -1.9125730229       -0.5614304555
 H          4.2714926714       -1.8728554842       -1.9879178287
 H          3.8670259949       -4.0124391849       -0.7934823534
