  22
        -29.46297211
 C         -3.2267751870        0.0423520269        0.0000017755
 C         -1.7269518832        0.0303614698        0.0000126828
 C         -0.9967519185        1.2080646579       -0.0000053018
 C          0.3900007311        1.2040655249       -0.0000083885
 C          1.1600559029        2.4973873800       -0.0000246979
 C          1.0629572972       -0.0195194203        0.0000114014
 O          2.4310479779       -0.0805053345        0.0000152880
 C          0.3491818536       -1.2197204062        0.0000132716
 C          1.0671106932       -2.5367358757       -0.0000311441
 C         -1.0351193947       -1.1724722669        0.0000138181
 H         -3.6077900368        1.0604234896        0.0005301953
 H         -3.6110759803       -0.4726463465        0.8797277423
 H         -3.6110353586       -0.4716959075       -0.8803026778
 H         -1.5156716650        2.1564546178        0.0000009623
 H          0.4736496197        3.3397429092       -0.0002226423
 H          1.7918928510        2.5805773280       -0.8868281868
 H          1.7916087921        2.5807680129        0.8869655458
 H          2.7847414569        0.8156575026        0.0002422028
 H          2.1410619312       -2.3800111409        0.0006978714
 H          0.7946349428       -3.1154281792       -0.8815959751
 H          0.7934918069       -3.1161334409        0.8807093085
 H         -1.5862454761       -2.1023557833        0.0000305892
