48
 energy: -55.804490979987 gnorm: 0.000054005646 xtb: 6.4.1 (23d549d)
C         3.80089474260000   -2.54050405920000    0.37141965350000
C         3.70618296310000   -1.29638184980000   -0.08190579900000
C         2.50547479980000   -0.48843521790000   -0.03431815650000
C         1.21258647290000   -0.94458331330000   -0.02920072560000
N         0.33657378260000    0.10198816060000   -0.07117681910000
Si       -1.43473086700000    0.12222034410000   -0.03811918800000
C        -1.88807465330000    1.06073772950000    1.58614489130000
C        -3.34987676660000    0.88047531100000    1.99351459760000
C        -0.96960183480000    0.69430243200000    2.75266452900000
C        -1.95950200520000    1.20755938220000   -1.54505151880000
C        -1.07491814650000    0.99152246190000   -2.77345354990000
C        -3.42814854080000    1.02000011530000   -1.92413189860000
C        -2.17719639160000   -1.64961909650000   -0.12035302740000
C        -1.80365255120000   -2.40122312120000   -1.39935559070000
C        -1.85592550100000   -2.50899000230000    1.10338452570000
C         1.08585689840000    1.24686587280000   -0.10392940810000
C         2.42234338020000    0.94442414230000   -0.07708808500000
C         3.48881877430000    1.92376573570000   -0.05628418700000
C         4.69779903890000    1.74938804230000    0.46371599610000
H         4.71326044100000   -3.10620982250000    0.28915729480000
H         2.97294555160000   -3.03547650910000    0.85064823660000
H         4.56554976290000   -0.82276214260000   -0.53900318940000
H         0.86382257730000   -1.95600761890000   -0.03263486920000
H        -1.74147266650000    2.12975795690000    1.39215711970000
H        -3.56711921750000   -0.16082951320000    2.21610357400000
H        -4.01834710150000    1.20487084260000    1.20041960470000
H        -3.57078894460000    1.46808672860000    2.88340849170000
H        -1.07858883270000   -0.35223968580000    3.02344644530000
H        -1.21135740860000    1.29653114610000    3.62731736790000
H         0.07147608430000    0.87111630130000    2.49525263050000
H        -1.84009754770000    2.25563405810000   -1.24703282260000
H        -1.16951575760000   -0.02332983730000   -3.14987726270000
H        -0.02937920950000    1.16711131290000   -2.53464071220000
H        -1.36295102410000    1.67546360560000   -3.57068970130000
H        -3.61619875880000    0.00344629060000   -2.25938708940000
H        -3.70045838200000    1.69666811910000   -2.73284586670000
H        -4.07945789350000    1.22505351840000   -1.07866992700000
H        -3.26523197750000   -1.51873999260000   -0.13552050420000
H        -0.72786270000000   -2.52335230950000   -1.48884192180000
H        -2.15720288660000   -1.87167096920000   -2.27953528290000
H        -2.25826431040000   -3.39146052090000   -1.39900055840000
H        -0.78531597420000   -2.64791549030000    1.22287461200000
H        -2.31485498120000   -3.49200492880000    1.00122174210000
H        -2.24044276940000   -2.05362855470000    2.01159745050000
H         0.61169200860000    2.20845801700000   -0.11904435730000
H         3.22423888050000    2.88530773620000   -0.48192685950000
H         4.98853903710000    0.83020294120000    0.94205528440000
H         5.43553198190000    2.53402590770000    0.44552441080000
