35
 energy: -43.370318995228 gnorm: 0.000172133395 xtb: 6.4.1 (23d549d)
C        -4.15551821300000   -2.60671118210000    0.27478867870000
C        -2.84189099170000   -2.41559133850000    0.18937113070000
C        -2.20012292160000   -1.13628714660000    0.06835848510000
C        -0.85300311380000   -0.89473626970000   -0.02085950180000
C        -0.50704013050000    0.46531125730000   -0.13922418170000
C         0.90358806050000    0.96963477720000   -0.20162920020000
C         1.94073416020000   -0.01461426740000    0.33850442620000
C         3.32595727950000    0.62610921000000    0.39381269880000
C         4.38414420840000   -0.27068439400000    1.03857515860000
C         4.66287239600000   -1.57994191610000    0.29800988370000
C         5.19993151420000   -1.37189098730000   -1.11316366920000
C        -1.62021276760000    1.28177934960000   -0.14763271050000
C        -1.76965294420000    2.71036754150000   -0.24888509370000
C        -0.88987725440000    3.58818324850000   -0.72585233760000
S        -3.08642252410000    0.35274572430000    0.01513695430000
H        -4.58024915350000   -3.59059543350000    0.36495444330000
H        -4.84425412510000   -1.77816425240000    0.25675557540000
H        -2.16313311000000   -3.25926861550000    0.20803653560000
H        -0.13366488820000   -1.69343914380000    0.00073366600000
H         0.96170242890000    1.89846157540000    0.37316876780000
H         1.15328002990000    1.21054864210000   -1.24056918720000
H         1.97551514230000   -0.89443114100000   -0.30448046530000
H         1.65017630400000   -0.33393449630000    1.34219169580000
H         3.26376765620000    1.54891543760000    0.97713889910000
H         3.63979586270000    0.90136235230000   -0.61470815140000
H         4.06684758510000   -0.50893052480000    2.05708063660000
H         5.31741454490000    0.29388822230000    1.10894029970000
H         3.75469071410000   -2.18360393750000    0.25722639300000
H         5.39973723800000   -2.14368571370000    0.87562540200000
H         4.45077635580000   -0.91587047630000   -1.75518595760000
H         5.48439022680000   -2.32550209890000   -1.55259664020000
H         6.07679132800000   -0.72799894730000   -1.09511376380000
H        -2.73517955720000    3.07184631620000    0.08552367060000
H         0.06600484860000    3.30629390220000   -1.12632185680000
H        -1.12426682360000    4.63862096440000   -0.74962515440000
