  23
        -38.06800305
 C         -2.2849360224        3.6630764785        0.0469383917
 C         -2.6766729857        2.3995557843       -0.0606609949
 C         -1.8246422285        1.2152861662       -0.0366254636
 C         -2.4258825132       -0.0444559598       -0.0151049502
 C         -1.6712441482       -1.2064323364        0.0125345022
 C         -2.3277756498       -2.5528691091        0.0539704894
 C         -0.2862311626       -1.1134275741        0.0144269437
 C          0.3450322443        0.1296330699       -0.0126511671
 C          1.7919251613        0.2893116758       -0.0176804204
 C          2.7281026450       -0.6470117205        0.0016061760
 F          2.5724463627       -1.9658793539        0.0293820864
 F          4.0326000787       -0.3705800309       -0.0047702601
 C         -0.4354359895        1.2839869432       -0.0380931205
 H         -2.9946246865        4.4720911859        0.0216650402
 H         -1.2540274065        3.9477041899        0.1691484192
 H         -3.7336037796        2.1876092014       -0.1680823852
 H         -3.5049578519       -0.1125807451       -0.0170910495
 H         -3.3874024624       -2.4787095697       -0.1766246025
 H         -2.2221116445       -2.9882981264        1.0475526505
 H         -1.8583024559       -3.2299428219       -0.6568010035
 H          0.2945212300       -2.0211820954        0.0343296048
 H          2.1635937073        1.3038735723       -0.0392840205
 H          0.0543703005        2.2447311457       -0.0669261765
