20
 energy: -39.106236950117 gnorm: 0.000087071840 xtb: 6.4.1 (23d549d)
C         2.99699922480000   -2.50684827940000   -0.13490251600000
C         2.69496907460000   -1.22669942660000    0.04150609810000
C         1.35479341550000   -0.65015006990000    0.03107658510000
C         0.18864378560000   -1.40825466610000    0.05450702540000
C        -1.09235869120000   -0.85705854200000    0.04210632200000
C        -2.23653215700000   -1.76241628220000    0.06666621760000
C        -3.52108506420000   -1.45546041590000   -0.07312582190000
C        -1.18424989230000    0.53789694070000    0.01383943670000
F        -2.36930054670000    1.16745000280000    0.01435374830000
C        -0.04261310960000    1.32915447890000   -0.00162224310000
F        -0.15944643980000    2.66478728240000   -0.02339572510000
C         1.21263349260000    0.74018443220000    0.00751529780000
F         2.29789282020000    1.53099150570000   -0.01015013640000
H         4.01903272610000   -2.84205598090000   -0.11392759160000
H         2.25475205680000   -3.26538110800000   -0.31435716050000
H         3.49126078860000   -0.51087662360000    0.19449245630000
H         0.27469746030000   -2.48248021220000    0.08948206580000
H        -1.95933186130000   -2.80000947870000    0.20575033360000
H        -3.88048699810000   -0.45454324290000   -0.22626871700000
H        -4.27197929010000   -2.22654414330000   -0.04025185840000
