  26
        -40.95902528
 C         -4.0484182897        2.0502698528        0.1562060930
 C         -3.4429636830        1.0129208858       -0.4053877599
 C         -2.0199130081        0.7067957028       -0.2555772210
 C         -1.1029614775        1.7577762681       -0.1846040736
 C          0.2492688566        1.5228362273       -0.0323291226
 C          0.6902402924        0.2156993265        0.0467259798
 S          2.4435561165       -0.1213322469        0.1871649844
 C          2.9791163735       -0.2268879608       -1.5488906005
 O          3.0965105885        1.0093146229        0.7893212554
 O          2.6269843982       -1.4138697875        0.7905854846
 C         -0.1878887213       -0.8416924705       -0.0189525065
 C         -1.5575776056       -0.6216383224       -0.1649522619
 C         -2.4723895705       -1.7615855982       -0.1994175761
 C         -2.2716971500       -2.9016552948        0.4480661028
 H         -5.0981767936        2.2375378673        0.0092796170
 H         -3.5278515083        2.7359827130        0.8033853252
 H         -4.0214195473        0.3309839994       -1.0138295313
 H         -1.4645402757        2.7714082741       -0.2669120887
 H          0.9655311110        2.3259803777        0.0366236361
 H          2.7720597976        0.7240030724       -2.0218767250
 H          2.4308547015       -1.0320075919       -2.0200969666
 H          4.0419931083       -0.4333164791       -1.5556250977
 H          0.2079005046       -1.8427566995        0.0469303701
 H         -3.3723439321       -1.6405561759       -0.7867082971
 H         -1.4138910882       -3.0600420814        1.0793463606
 H         -2.9752703223       -3.7140551473        0.3864139489
