  26
        -40.95834611
 C         -2.9835644579       -3.1707311270       -0.5582065657
 C         -1.7234508994       -2.7572177703       -0.5021164540
 C         -1.2602085925       -1.3961086151       -0.2536396768
 C         -2.1250871974       -0.3218170447       -0.0533205238
 C         -1.6549784537        0.9673656477        0.1824702216
 C         -2.5399811673        2.1083490669        0.3950260371
 C         -3.8672357455        2.0961000753        0.4092239206
 C         -0.2717352630        1.1805393350        0.2167368399
 C          0.5868633490        0.1228032662        0.0190093320
 S          2.3810241087        0.2741016355        0.0397675963
 C          2.7751912099        2.0216730304        0.3577010378
 O          2.8745878625       -0.5024605317        1.1452224195
 O          2.8651454386       -0.0603960590       -1.2726468044
 C          0.1144084635       -1.1517492124       -0.2138929749
 H         -3.2226853206       -4.2026247223       -0.7487411924
 H         -3.8246451064       -2.5132530484       -0.4196604591
 H         -0.9276989753       -3.4758850374       -0.6498246633
 H         -3.1882823525       -0.4928904179       -0.0829677176
 H         -2.0260508598        3.0481338434        0.5559639020
 H         -4.4473482825        1.2022789851        0.2588489768
 H         -4.4305583163        2.9978217274        0.5763018668
 H          0.1068890856        2.1742579833        0.3982454945
 H          2.3780192938        2.2981262347        1.3254652747
 H          2.3672205057        2.6226044487       -0.4442814331
 H          3.8564188816        2.0877130069        0.3631435203
 H          0.8295724396       -1.9458085469       -0.3626936483
