23
 energy: -38.064628273104 gnorm: 0.000028698738 xtb: 6.5.0 (unknown)
C           -4.60662312050000        0.14255125580000       -0.74183895170000
C           -3.82849861680000       -0.56490043190000        0.06861064230000
C           -2.38908042950000       -0.41684377260000        0.24141907930000
C           -1.69521192490000       -1.36300218800000        0.99898043750000
C           -0.33396572030000       -1.25728190250000        1.17271041610000
C            0.39161677750000       -0.21748629390000        0.58887487840000
C            1.83859011770000       -0.20773948610000        0.81462311370000
C            2.78172013300000       -0.01109777920000       -0.08943102930000
F            2.62165480090000        0.21231215410000       -1.38835356260000
F            4.08639210890000       -0.04238831250000        0.18621815700000
C           -0.29153200240000        0.76416519940000       -0.13973743990000
C            0.40122100080000        1.96052019040000       -0.71647547700000
C           -1.66371509140000        0.64189685360000       -0.29933263980000
H           -5.66462856250000       -0.04528894650000       -0.80611349840000
H           -4.22909538580000        0.92605229390000       -1.37614373550000
H           -4.27273256600000       -1.35175011850000        0.66640913680000
H           -2.23196959610000       -2.18480086080000        1.45046122900000
H            0.19247757290000       -1.99892564810000        1.75614216400000
H            2.18152476400000       -0.44851455980000        1.81090767120000
H            1.24841525960000        2.25971296370000       -0.10293567150000
H           -0.29047578810000        2.79664963710000       -0.78927847660000
H            0.76982642550000        1.74176911120000       -1.71807147310000
H           -2.18202216960000        1.40873790570000       -0.85473630990000
