23
 energy: -42.064772232298 gnorm: 0.000045734481 xtb: 6.4.1 (23d549d)
C         4.78515431140000    0.26570465800000    0.24478422990000
C         3.55214716690000    0.75661572880000    0.19410709180000
C         2.32265288540000   -0.00420609300000    0.01768931980000
C         2.29153661210000   -1.38413919700000   -0.21176151360000
C         1.09850194520000   -2.05520537280000   -0.36788808130000
C        -0.13428651370000   -1.39527654110000   -0.28642172130000
C        -1.36909431770000   -2.16335941580000   -0.39988343850000
C        -2.43783181290000   -1.99846124730000    0.36502721030000
C        -0.08749009340000   -0.02088152170000   -0.08822974890000
S        -1.52048034300000    1.02205060480000   -0.12492605000000
O        -1.13379738720000    2.37885814660000   -0.29642964810000
O        -2.61417658410000    0.50976224930000   -0.87028824910000
F        -1.95882552260000    0.91546507930000    1.47029524730000
C         1.09820782560000    0.66445926890000    0.05593248360000
H         5.63543460520000    0.91088787910000    0.38150481180000
H         5.00190509210000   -0.78506632350000    0.15756646240000
H         3.40396884350000    1.82368296690000    0.29689664530000
H         3.21550161130000   -1.93705174180000   -0.27529140230000
H         1.10273044230000   -3.12135552880000   -0.54096750040000
H        -1.34294319580000   -2.95926005510000   -1.13367633250000
H        -2.48368525040000   -1.25998565610000    1.14338353770000
H        -3.30886039070000   -2.61857420410000    0.24309455470000
H         1.04918444970000    1.73377666720000    0.18748660800000
