  24
        -37.67295561
 C          4.0335557610        0.5440558253        0.1686927720
 C          3.2846253095       -0.5194249548       -0.1035877157
 C          1.8443232377       -0.5501909919       -0.0858429866
 N          1.1655378814       -1.7215056453       -0.0151741946
 N         -0.1595156196       -1.5587005582        0.0146037209
 C         -0.3602795692       -0.2505449024       -0.0410618223
 N         -1.5963467247        0.3499097551       -0.0931573228
 C         -2.8565599393       -0.1828899068       -0.0106932699
 C         -2.9418790745       -1.6601544380        0.2322888417
 O         -3.8151310171        0.5497573649       -0.1251477173
 C          0.8756979394        0.4539657582       -0.1044966608
 C          1.0723885939        1.8828258793       -0.2449799281
 C          0.3503601761        2.8181999348        0.3607395039
 H          5.1077299623        0.4954012767        0.1287590228
 H          3.6017925420        1.4866897852        0.4548035748
 H          3.7555254907       -1.4646817953       -0.3470674235
 H          1.5510715295       -2.6490964515        0.0553505926
 H         -1.5690520721        1.3494780022       -0.2637768178
 H         -2.4816876222       -2.1930727676       -0.5954399921
 H         -3.9854225948       -1.9451695401        0.3293462497
 H         -2.3926013945       -1.9210196432        1.1327135518
 H          1.8776496431        2.1699855899       -0.9110634661
 H         -0.4221397763        2.5823093936        1.0741049049
 H          0.5362503534        3.8651406018        0.1929088134
