  25
        -44.38412509
 C          0.9578943601       -3.8577278510        0.1760681375
 C          1.5000575962       -2.6636654381       -0.0294964662
 C          0.7912544548       -1.3904570261       -0.0243199486
 C         -0.5919420970       -1.2775182790        0.0451520917
 C         -1.2331932780       -0.0460878690        0.0315225334
 C         -2.7215503637       -0.0722258245        0.0396877357
 O         -3.3651179312       -0.9073415455        0.6123448109
 O         -3.3370912517        0.8946471424       -0.6765459349
 C         -0.4846762265        1.1435548952        0.0113905072
 N         -1.1011041378        2.3828577843        0.0680849488
 C          0.9182806046        1.0655572312       -0.0866022930
 C          1.7233680673        2.2900763490       -0.1910067797
 C          2.8611342921        2.5049673026        0.4521287873
 C          1.5077329248       -0.1914872771       -0.1096874350
 F          2.8495539273       -0.2621171241       -0.2332139440
 H          1.5593054647       -4.7498336400        0.1574970940
 H         -0.0904645205       -3.9971152396        0.3754656087
 H          2.5643606471       -2.5887256732       -0.2094242711
 H         -1.2108547281       -2.1585588136        0.0925088565
 H         -2.7078277890        1.4465435945       -1.1628849646
 H         -1.9805780574        2.4174600978        0.5626115816
 H         -0.4865672400        3.1447309455        0.3115837386
 H          1.3303111993        3.0453294707       -0.8620231065
 H          3.2799355104        1.7835240021        1.1322615822
 H          3.4169103361        3.4172814969        0.3194592981
