  82
        -97.86644187
 C         -0.0496100090        2.7153746297       -1.6494244389
 C         -0.4587725090        2.2708560976       -0.4661978559
 C         -0.3024994491        0.9395710611        0.1004228559
 C         -1.0543994846        0.6383788422        1.2351626486
 C         -1.0054788284       -0.5926588666        1.8682117263
 O         -1.6991258014       -0.8761878540        3.0143025275
 C         -3.0300616235       -0.4206861472        3.1597833115
 C         -4.0350402260       -1.5493530761        2.9007972850
 C         -3.9165244832       -2.1714344083        1.5084138609
 C         -4.1574395016       -1.1846900936        0.3677488243
 C         -4.2184059338       -1.9010029219       -0.9790687516
 C         -4.3896318792       -0.9480421949       -2.1628264775
 C         -3.1997163216       -0.0201417211       -2.4223056372
 C         -1.8733383432       -0.7293901348       -2.6929594981
 C         -1.8889473622       -1.6086981091       -3.9408560003
 C         -0.5077185996       -2.1831423877       -4.2318955570
 C         -0.1558151247       -1.5891720230        1.3538945067
 C         -0.1063973994       -2.8904293945        2.0049198956
 C          0.4225581777       -4.0042928004        1.5110359390
 C          0.6162050947       -1.2863882976        0.2341180231
 C          0.5666618820       -0.0541131805       -0.3978317369
 O          1.3362432295        0.2613020480       -1.4752802541
 C          2.3820693277       -0.6037240796       -1.8668905588
 C          3.3043308392        0.1403946160       -2.8342688179
 C          4.2968076740        1.0641021580       -2.1250971138
 C          3.6214659256        2.2845001052       -1.5021815641
 C          4.5378312040        3.1003588257       -0.5912085011
 C          5.0659130498        2.3483175321        0.6349115661
 C          4.0034234927        1.6251176632        1.4646960327
 C          2.9207606491        2.5443239889        2.0232970440
 C          1.9726412478        1.7880208326        2.9511578275
 C          0.8563663230        2.6818139769        3.4750781613
 H         -0.2428972531        3.7315257665       -1.9516399623
 H          0.4789681297        2.0966313807       -2.3488566384
 H         -1.0062742655        2.9525090722        0.1763039152
 H         -1.6858275046        1.4178852614        1.6372603913
 H         -3.2440535718        0.4221542602        2.4992015759
 H         -3.1279502582       -0.0795739580        4.1965217171
 H         -5.0387516104       -1.1427205283        3.0428425043
 H         -3.8758712692       -2.3310740698        3.6461085083
 H         -4.6458154776       -2.9825487152        1.4369525865
 H         -2.9241310120       -2.6135146473        1.3963278048
 H         -3.3492220608       -0.4536222804        0.3427304787
 H         -5.0962102265       -0.6501480069        0.5364852589
 H         -5.0620425191       -2.5966696508       -0.9705748490
 H         -3.3117102994       -2.4934929707       -1.1102398198
 H         -5.2742797807       -0.3292712509       -1.9893049764
 H         -4.5809028547       -1.5385858075       -3.0610522925
 H         -3.0622784628        0.6462039406       -1.5683728689
 H         -3.4430395028        0.6075112583       -3.2838706260
 H         -1.5932927682       -1.3312032096       -1.8263760937
 H         -1.1031648057        0.0355940635       -2.8127734139
 H         -2.2229791753       -1.0162439148       -4.7961139259
 H         -2.5944354429       -2.4307667165       -3.8082068754
 H          0.2128852264       -1.3823411028       -4.3855459084
 H         -0.5271771265       -2.8043115985       -5.1248536146
 H         -0.1698413505       -2.7945545113       -3.3970379365
 H         -0.5810228884       -2.9141988268        2.9763135369
 H          0.8887049351       -4.0539270935        0.5412315516
 H          0.4008117574       -4.9257360248        2.0671187442
 H          1.2734796467       -2.0520968080       -0.1431896276
 H          1.9594359369       -1.4902105466       -2.3612239704
 H          2.9575830226       -0.9328202196       -0.9912625801
 H          2.6887473986        0.7164248596       -3.5268179823
 H          3.8571497924       -0.6047087809       -3.4099615449
 H          5.0495487431        1.3960956460       -2.8445304265
 H          4.8120046654        0.4892049121       -1.3538799000
 H          2.7480743888        1.9678948184       -0.9372898314
 H          3.2646885762        2.9346365190       -2.3051887477
 H          3.9844223516        3.9797510249       -0.2554757473
 H          5.3964951925        3.4566672312       -1.1669986570
 H          5.5814176793        3.0687377359        1.2756060758
 H          5.8112953836        1.6156999224        0.3162790535
 H          4.5065828333        1.1288390257        2.2995599222
 H          3.5302329280        0.8449804462        0.8663713055
 H          2.3415394333        2.9742943108        1.2041567989
 H          3.3880607887        3.3662652140        2.5715638281
 H          2.5363899151        1.3803244117        3.7937744125
 H          1.5345375349        0.9469035065        2.4089121123
 H          1.2642953477        3.5007222948        4.0643120943
 H          0.1743697574        2.1113826707        4.1013631495
 H          0.2930545421        3.1045210170        2.6463547276
