25
 energy: -45.728346414495 gnorm: 0.000069956452 xtb: 6.4.1 (23d549d)
C        -2.14965179140000   -3.69294708060000    0.00826925040000
C        -2.51793654220000   -2.42104681990000   -0.09221974050000
C        -1.64379295410000   -1.25697306170000   -0.08410749960000
C        -2.20080688340000    0.01867818420000   -0.17884077010000
C        -1.44114159560000    1.17706126890000   -0.15898698080000
C        -2.14404466020000    2.46113227050000   -0.21896109660000
C        -1.84496726030000    3.55149192420000    0.47600283790000
C        -0.03234560870000    1.08196136430000   -0.09705785790000
N         0.74924983900000    2.20006867390000   -0.10546921150000
C         0.52750024300000   -0.20580538030000   -0.00541909590000
C         2.01657333900000   -0.34792897960000    0.06897371170000
F         2.56129823450000    0.30008275330000    1.12118647210000
F         2.43179393260000   -1.61540684670000    0.16154696930000
F         2.64424173720000    0.16494685830000   -1.02029455770000
C        -0.25851392970000   -1.34560893440000    0.01230174780000
H        -2.87668524250000   -4.48634147600000   -0.00760145410000
H        -1.12288128520000   -3.99859860770000    0.11060749510000
H        -3.57101055100000   -2.18700594390000   -0.19027093000000
H        -3.27557873710000    0.11459420760000   -0.25000090990000
H        -3.01616014730000    2.46599322910000   -0.86213284010000
H        -1.03615307200000    3.58025466310000    1.18666498570000
H        -2.43784978410000    4.44675601150000    0.39211126840000
H         0.31142048920000    3.04876310330000   -0.42568080620000
H         1.73003584360000    2.11153957960000   -0.30694501200000
H         0.22042053900000   -2.30775381450000    0.09019942690000
