  26
        -36.02647437
 C          3.6288618875        0.5237694408        0.7119978253
 C          2.8081316349        1.0986654836       -0.1557473442
 C          1.3551232534        0.9165654027       -0.1961557668
 C          0.5651313840        2.0421840177       -0.2803231493
 C         -0.8252102276        1.9602809258       -0.2392811987
 C         -1.4698960940        0.7485400300       -0.1178744879
 C         -2.9314774280        0.7049317419       -0.0924782535
 C         -3.6949799634        1.6046717975        0.5128201860
 C         -0.6900121043       -0.4421514863       -0.0631647589
 C         -1.2819786460       -1.7165566779        0.0744157009
 C         -0.5274852265       -2.8558186133        0.0812018305
 C          0.8630749887       -2.7777807935       -0.0682457424
 C          1.4730520870       -1.5592763001       -0.1681465412
 C          0.7295029476       -0.3600372356       -0.1290577694
 H          4.6852460673        0.7345284976        0.7148445046
 H          3.2748826661       -0.1591038075        1.4664949882
 H          3.1980691477        1.8256489164       -0.8589296283
 H          1.0332572040        3.0138036110       -0.3569280153
 H         -1.4078250401        2.8662700865       -0.3190070861
 H         -3.3976144677       -0.1159372022       -0.6216207807
 H         -3.2757265820        2.4229925974        1.0743879386
 H         -4.7698242923        1.5464246279        0.4857921321
 H         -2.3533941224       -1.7906359947        0.1794445249
 H         -1.0004729134       -3.8214462904        0.1862382356
 H          1.4486263022       -3.6849387332       -0.1037208038
 H          2.5428669706       -1.5027721632       -0.2973342671
