  41
        -57.62611869
 C          3.5841818292        4.0681515505       -0.1251211892
 C          2.5225957131        3.0082525806       -0.0946064205
 C          2.8544931319        1.6665212153       -0.0477916654
 C          1.8429824379        0.7150382581       -0.0143403248
 C          1.8401671805       -0.7201554362        0.0145019013
 C          2.8478660889       -1.6756653147        0.0481871521
 C          2.5106116817       -3.0160536359        0.0953134267
 C          3.5679450774       -4.0801810808        0.1262381025
 C          1.1620802037       -3.3883445867        0.1234677233
 C          0.1409013015       -2.4608320869        0.0906339421
 C          0.4847391453       -1.1182876347        0.0190461584
 N         -0.3223913105        0.0017147883        0.0000527783
 C         -1.7236835080        0.0039870040       -0.0001787972
 C         -2.4264076630        0.7869564784        0.9101802107
 C         -3.8081384633        0.7901981067        0.8997266334
 C         -4.5202204296        0.0110567462       -0.0035129671
 C         -6.0183818870       -0.0052106033        0.0055253747
 C         -3.8092583946       -0.7725362858       -0.9051329615
 C         -2.4282151937       -0.7760358904       -0.9125435823
 C          0.4891345789        1.1185503872       -0.0189443179
 C          0.1506734016        2.4624654288       -0.0904055753
 C          1.1755548081        3.3859013024       -0.1228925892
 H          4.5764438203        3.6242185598       -0.1276901412
 H          3.4979229452        4.7182265340        0.7452613711
 H          3.4787795596        4.6884405926       -1.0146447436
 H          3.8893226607        1.3565788374       -0.0418378108
 H          3.8839274549       -1.3698720009        0.0422101436
 H          4.5619549613       -3.6401926720        0.1303297744
 H          3.4801483230       -4.7291952716       -0.7447895109
 H          3.4590150621       -4.7007730578        1.0151194274
 H          0.9164645475       -4.4395387769        0.1766406601
 H         -0.8917833313       -2.7733866747        0.1316917146
 H         -1.8846776350        1.3812190223        1.6308585449
 H         -4.3424213432        1.4034678298        1.6113325148
 H         -6.4147621401        0.9063646397        0.4461069511
 H         -6.3786284717       -0.8500154432        0.5938356445
 H         -6.4103168602       -0.1096728815       -1.0038806298
 H         -4.3461021129       -1.3814178586       -1.6186095986
 H         -1.8873355455       -1.3705263368       -1.6336919641
 H         -0.8807384488        2.7791644596       -0.1315748682
 H          0.9341299920        4.4380761902       -0.1758240606
