  14
        -25.29557836
 C         -4.2064757550        0.1482390413       -0.0033063671
 C         -2.9910201787       -0.3958466485        0.0011040537
 C         -1.7761016889        0.3737975289        0.0014413407
 C         -0.5494052592       -0.1735647584        0.0029324691
 C          0.6593099739        0.6035254791        0.0020217327
 C          1.8762423285        0.0708474494       -0.0000261574
 F          2.1555384947       -1.2285261529       -0.0012973982
 F          3.0074347308        0.7697686534       -0.0013440583
 H         -5.0996994108       -0.4516043642       -0.0038688707
 H         -4.3453259270        1.2169744838       -0.0068237069
 H         -2.8770836703       -1.4720433196        0.0043883217
 H         -1.8830530900        1.4508697551       -0.0002629418
 H         -0.4344822203       -1.2489237125        0.0041732041
 H          0.5886852766        1.6802251223        0.0025257014
