  47
        -61.78303651
 C         -3.2650430323        1.1296876775        1.7867403719
 C         -3.5006008892        2.4379215439        1.0406135765
 C         -2.2686070629        3.3449856659        0.9985520248
 C         -1.0339581275        2.7219076614        0.3477637530
 C         -1.2360982190        2.3866372600       -1.1281659428
 C          0.0075358220        1.7205738504       -1.7272061788
 N          0.3470082364        0.5148835979       -1.0033346922
 C         -0.6096563681       -0.4836295158       -0.8301764327
 C         -1.6081593793       -0.7145783106       -1.7741204055
 C         -2.5724009233       -1.6864175470       -1.5729993559
 C         -2.5639977532       -2.4841881902       -0.4390905895
 C         -3.6107862304       -3.5287675851       -0.2005870540
 C         -1.5507054538       -2.2849530719        0.4907088101
 C         -0.6009028340       -1.2985407201        0.3049737339
 S          0.6099982038       -1.0383205407        1.5755931355
 C          1.9372173383       -0.4443710338        0.5602791260
 C          3.2365868242       -0.6861638334        0.9646306218
 C          4.3129094554       -0.1919644223        0.2392310942
 C          5.7171548272       -0.4167337710        0.7102315888
 C          4.0441469089        0.5265262612       -0.9166378481
 C          2.7455347202        0.7475352600       -1.3385671306
 C          1.6591954778        0.2837447641       -0.5987208528
 H         -4.2034149538        0.5927781680        1.9079269818
 H         -2.8503589169        1.3224077362        2.7737792772
 H         -2.5803377671        0.4830648711        1.2446151970
 H         -4.3044618242        2.9885435816        1.5360798342
 H         -3.8386146353        2.2196894119        0.0258981512
 H         -2.0095187441        3.6246082897        2.0227034651
 H         -2.5291861796        4.2618230447        0.4627446360
 H         -0.7593752531        1.8179879868        0.8917560656
 H         -0.2003291643        3.4235022796        0.4412257838
 H         -1.4440082723        3.2993027692       -1.6908812675
 H         -2.0912458821        1.7205836241       -1.2364691840
 H          0.8488780513        2.4086879442       -1.6262760492
 H         -0.1462411044        1.5257023099       -2.7975102345
 H         -1.6351964075       -0.1280406776       -2.6788604043
 H         -3.3414417594       -1.8238466433       -2.3193413403
 H         -4.2739424834       -3.6159650150       -1.0574660746
 H         -4.2070741393       -3.2723915409        0.6748200168
 H         -3.1483150832       -4.4971068858       -0.0155032028
 H         -1.5102809863       -2.8833920485        1.3886162091
 H          3.4021860214       -1.2495236560        1.8709660308
 H          5.8149848865       -1.3925314873        1.1807037008
 H          5.9904454748        0.3399485496        1.4466700510
 H          6.4182431141       -0.3512933348       -0.1184573058
 H          4.8613439706        0.9133762929       -1.5080703161
 H          2.5760387938        1.2836151295       -2.2597283528
  47
        -61.78195583
 C         -0.3660498450        3.8533136777        2.5439380843
 C         -0.4197880198        2.4545120540        1.9414827541
 C         -1.6303153148        2.2326673012        1.0339006584
 C         -1.6452101861        3.0791629921       -0.2402596597
 C         -0.5125663638        2.7935136918       -1.2285518479
 C         -0.6233897946        1.4266963131       -1.9165806755
 N         -0.2128597226        0.3361234846       -1.0588628195
 C         -0.9570549645       -0.8440586957       -1.0315244179
 C         -1.7418755281       -1.2526951571       -2.1076392872
 C         -2.5017891428       -2.4078724666       -2.0422926471
 C         -2.4854824453       -3.2174862973       -0.9174707833
 C         -3.3097864290       -4.4652667987       -0.8300326109
 C         -1.6733273853       -2.8392004270        0.1447898157
 C         -0.9325496116       -1.6744136732        0.0927625658
 S          0.0366740579       -1.2228606252        1.5070096046
 C          1.3427953980       -0.3740191777        0.6606080611
 C          2.6083654260       -0.3924032896        1.2160067025
 C          3.6552470496        0.3051216927        0.6283552247
 C          5.0127186527        0.3270670617        1.2615779675
 C          3.3967208484        0.9964400169       -0.5464435169
 C          2.1368155490        0.9985943966       -1.1173444711
 C          1.0729996453        0.3255029322       -0.5183332401
 H          0.4584589779        3.9270273450        3.2496421370
 H         -1.2905089145        4.0767736554        3.0726636483
 H         -0.2182599179        4.6074866122        1.7747710881
 H         -0.4689509439        1.7223831714        2.7507973067
 H          0.5034652464        2.2612244906        1.3928138399
 H         -2.5346800199        2.4642809245        1.6032036828
 H         -1.6803659801        1.1771060107        0.7667978071
 H         -1.6014624218        4.1350240282        0.0340675928
 H         -2.6006464703        2.9183897244       -0.7477415391
 H          0.4486899397        2.8812652541       -0.7237363458
 H         -0.5442754893        3.5558299691       -2.0111509903
 H         -0.0466030738        1.4362511164       -2.8527661701
 H         -1.6718206871        1.2648772070       -2.1731036556
 H         -1.7597760927       -0.6688637391       -3.0147685187
 H         -3.1096993564       -2.6825689565       -2.8921353390
 H         -3.8110790615       -4.6656619392       -1.7734870178
 H         -4.0649173171       -4.3654010331       -0.0507275875
 H         -2.6832657444       -5.3194447667       -0.5778495090
 H         -1.6278049731       -3.4446216184        1.0377870171
 H          2.7645310701       -0.9424166904        2.1320002992
 H          5.1950222030       -0.5896492495        1.8172444147
 H          5.0873406219        1.1636051215        1.9575992988
 H          5.7887217762        0.4453593388        0.5086982063
 H          4.1932059962        1.5417023026       -1.0319708788
 H          1.9839476908        1.5346484561       -2.0403291377
  47
        -61.77987737
 C         -2.4462653075        4.7554313039        2.3291779872
 C         -3.3941544352        3.7267804581        1.7239244845
 C         -3.3952199309        3.7323578297        0.1944719887
 C         -2.0514602729        3.3917085063       -0.4512532414
 C         -1.5627691976        1.9848614235       -0.1165174853
 C         -0.3056596712        1.6357367423       -0.9187798855
 N          0.2057575976        0.3366897895       -0.5410309604
 C         -0.6046523926       -0.7916773357       -0.6737380571
 C         -1.6361436740       -0.8590157780       -1.6076712922
 C         -2.4361246469       -1.9836255656       -1.7108118743
 C         -2.2256501751       -3.0932007245       -0.9070182348
 C         -3.0862158280       -4.3155213806       -1.0058581150
 C         -1.1820166603       -3.0447869457        0.0092675006
 C         -0.3966028271       -1.9148880117        0.1309778200
 S          0.8715401212       -1.8917677428        1.3706182500
 C          2.0316116647       -0.8482094129        0.5290546604
 C          3.3812432941       -1.0384344298        0.7587443468
 C          4.3290776300       -0.2191179934        0.1597455323
 C          5.7874392381       -0.3980780535        0.4517666776
 C          3.8807058364        0.7733562632       -0.6994505450
 C          2.5319768220        0.9502274898       -0.9513375420
 C          1.5720712500        0.1578378668       -0.3242694156
 H         -2.5674501437        4.7884657053        3.4095447328
 H         -2.6544584466        5.7463583832        1.9308199636
 H         -1.4098630533        4.5080133873        2.1151002945
 H         -4.4106631361        3.9425159914        2.0621317823
 H         -3.1353721963        2.7319361063        2.0895576952
 H         -3.7023467730        4.7228019398       -0.1511044353
 H         -4.1427852813        3.0154464202       -0.1544203732
 H         -1.2996883275        4.1222900021       -0.1481278727
 H         -2.1655094674        3.4749157073       -1.5357443844
 H         -2.3546413017        1.2644160520       -0.3272518946
 H         -1.3198538275        1.9108544203        0.9444162013
 H          0.4618853054        2.3739818563       -0.6794345973
 H         -0.5109540445        1.7009657369       -1.9964214533
 H         -1.8207672057       -0.0263594465       -2.2674154473
 H         -3.2349682563       -1.9925595228       -2.4383450846
 H         -3.8288001025       -4.2044655225       -1.7918042220
 H         -3.6018546139       -4.4935918967       -0.0627914710
 H         -2.4775180541       -5.1924220639       -1.2220807380
 H         -0.9861201866       -3.8869750145        0.6561281782
 H          3.6869777682       -1.8260842269        1.4311746780
 H          6.0211722571       -1.4462572383        0.6227589895
 H          6.0600241258        0.1578619950        1.3495494634
 H          6.3948899718       -0.0293869066       -0.3713407112
 H          4.5950378405        1.4162593183       -1.1931168048
 H          2.2268706089        1.7121734634       -1.6518709287
  47
        -61.77967803
 C         -4.7891133936        3.3288846156        0.5611810090
 C         -3.7437973921        3.2811658747       -0.5466324908
 C         -2.4574708172        4.0306773111       -0.1952861184
 C         -1.7055370476        3.4902668144        1.0237594716
 C         -1.2632381389        2.0313647701        0.9146322876
 C         -0.2292314524        1.8078474839       -0.1935010622
 N          0.2939923168        0.4598379512       -0.1322477062
 C         -0.5763579035       -0.6232739655       -0.2533299041
 C         -1.7710394514       -0.5352611190       -0.9645266405
 C         -2.6316999283       -1.6147996178       -1.0577729028
 C         -2.3248655376       -2.8317683864       -0.4692897718
 C         -3.2484125953       -4.0079933788       -0.5582342207
 C         -1.1209405042       -2.9379502474        0.2166919639
 C         -0.2711128632       -1.8548535441        0.3318669320
 S          1.2121587612       -2.0389459338        1.2863256674
 C          2.2358350592       -0.8940938687        0.4002851819
 C          3.5962089392       -1.1306680771        0.3459258981
 C          4.4508633028       -0.2407010255       -0.2922788650
 C          5.9293169753       -0.4820119723       -0.3027649537
 C          3.8926159161        0.8736488613       -0.9001406712
 C          2.5279958163        1.1002817574       -0.8698296719
 C          1.6678601411        0.2337794315       -0.1978309013
 H         -5.7184469058        2.8772463106        0.2212948720
 H         -4.9934536406        4.3583353031        0.8478704010
 H         -4.4526208327        2.7855722363        1.4402710312
 H         -4.1634814912        3.7347387643       -1.4482811231
 H         -3.5182047541        2.2402244504       -0.7830968559
 H         -2.7093867009        5.0758708860        0.0021842377
 H         -1.7956083183        4.0189475727       -1.0640005939
 H         -2.3383892738        3.5932729615        1.9066204237
 H         -0.8229186410        4.1152619130        1.1842750397
 H         -2.1284550035        1.3880185602        0.7568759456
 H         -0.8068150320        1.7328307882        1.8617686253
 H          0.6018579439        2.4938524312       -0.0215424609
 H         -0.6567559778        2.0311007441       -1.1784457650
 H         -2.0354769860        0.3859595151       -1.4588101588
 H         -3.5561498280       -1.5017982061       -1.6057230959
 H         -4.1356624365       -3.7616483878       -1.1357394252
 H         -3.5575488627       -4.3239591728        0.4373570529
 H         -2.7463403249       -4.8500718602       -1.0327357235
 H         -0.8451411807       -3.8682520636        0.6906028400
 H          3.9893435367       -2.0129507166        0.8287433065
 H          6.1461897894       -1.5376374796       -0.4512218509
 H          6.3645971470       -0.1821440275        0.6510010616
 H          6.4098928535        0.0917736465       -1.0912995656
 H          4.5290813129        1.5762832614       -1.4183356691
 H          2.1302217795        1.9620556337       -1.3832717587
  47
        -61.77932585
 C         -1.3707653921        5.9494395705       -0.7382819810
 C         -0.6635571366        5.0248400584        0.2455908720
 C         -1.6298193711        4.2056448777        1.1042799698
 C         -2.4441817419        3.1617472378        0.3355588621
 C         -1.6272183786        1.9886737858       -0.2092545124
 C         -1.1894399439        1.0232956869        0.9031857943
 N         -0.3768549383       -0.0876312416        0.4526983898
 C         -1.0127561095       -1.2408512361       -0.0086606472
 C         -2.3727092820       -1.2498788759       -0.3240043951
 C         -3.0163222902       -2.3922620473       -0.7697131029
 C         -2.3328449845       -3.5826275858       -0.9443608145
 C         -3.0079818879       -4.8265552393       -1.4334993641
 C         -0.9788686880       -3.5896874179       -0.6358225633
 C         -0.3391434916       -2.4579402871       -0.1658543493
 S          1.3565991581       -2.6564669359        0.2960928717
 C          1.8968723770       -0.9737172462        0.2292719546
 C          3.2600863130       -0.7748278230        0.1121857834
 C          3.8128591851        0.4985620366        0.1423857635
 C          5.2949092509        0.6891322470        0.0438810560
 C          2.9421278730        1.5641899082        0.2893905444
 C          1.5742108300        1.3699552119        0.3809268401
 C          1.0028329124        0.0963153762        0.3502504067
 H         -0.6451288034        6.5707534390       -1.2582875177
 H         -2.0675070164        6.6010818924       -0.2152127091
 H         -1.9225774383        5.3824721575       -1.4836124970
 H         -0.0456898414        5.6300410744        0.9136344835
 H          0.0078610036        4.3634445009       -0.3049160143
 H         -2.3275253838        4.8948008955        1.5864689286
 H         -1.0657960894        3.7128022877        1.8990584122
 H         -2.9521674532        3.6522647862       -0.4959327017
 H         -3.2181255185        2.7686974007        1.0003387841
 H         -0.7544391274        2.3564207934       -0.7478080823
 H         -2.2326872487        1.4467106910       -0.9375304888
 H         -2.0734860707        0.6143375059        1.4013799190
 H         -0.6180867101        1.5611883277        1.6635417337
 H         -2.9662059913       -0.3583133839       -0.2195440481
 H         -4.0732397268       -2.3406972344       -0.9879975653
 H         -4.0580631478       -4.6399197854       -1.6436546645
 H         -2.9373062667       -5.6156527972       -0.6856667094
 H         -2.5284118402       -5.1868886271       -2.3427181340
 H         -0.4037236420       -4.4982450465       -0.7373734373
 H          3.8976963782       -1.6416372785        0.0192226934
 H          5.7017997565        0.1071723959       -0.7811164591
 H          5.7796533876        0.3519423580        0.9602807320
 H          5.5409321489        1.7369590294       -0.1092725788
 H          3.3269901139        2.5730624716        0.3289272299
 H          0.9581468634        2.2451847683        0.4880363268
  47
        -61.77820811
 C         -2.8242253413        2.8839551835       -2.3955018419
 C         -1.9066720124        3.8916568936       -1.7125003329
 C         -1.8229669002        3.6984653278       -0.1982373909
 C         -1.1254298841        2.3987591447        0.1977736994
 C         -1.0057294739        2.2837081480        1.7187357500
 C         -0.3392505590        0.9753376439        2.2223588531
 N          0.0868697643        0.0439878945        1.2017692460
 C         -0.8338736387       -0.8816474498        0.7139939050
 C         -2.2049660686       -0.7155311958        0.9164836230
 C         -3.1285950201       -1.6331499791        0.4452033616
 C         -2.7320667875       -2.7505391797       -0.2694280030
 C         -3.7159865215       -3.7529909603       -0.7889986344
 C         -1.3704688815       -2.9248633225       -0.4823281504
 C         -0.4433018991       -2.0245404781        0.0085305002
 S          1.2624830270       -2.4282220395       -0.2377409997
 C          1.9890030762       -0.8231832966       -0.0678850878
 C          3.2423574647       -0.6480724039       -0.6273090778
 C          3.9377015966        0.5439518719       -0.4835504018
 C          5.3115940152        0.7109357761       -1.0560003646
 C          3.3238662496        1.5597608470        0.2322669792
 C          2.0602823336        1.3974142767        0.7715618419
 C          1.3534081923        0.1999982879        0.6411327197
 H         -2.9172046926        3.1167202918       -3.4538850778
 H         -3.8168937708        2.9109383072       -1.9508372510
 H         -2.4340490354        1.8734047190       -2.3059079230
 H         -2.2783803840        4.8992990461       -1.9141062899
 H         -0.9042454921        3.8177181994       -2.1403454665
 H         -2.8320003888        3.7126300959        0.2215622269
 H         -1.2753197431        4.5405856188        0.2334211088
 H         -0.1347772049        2.3753205677       -0.2598484608
 H         -1.6922457627        1.5532479851       -0.1909003578
 H         -2.0068966828        2.3635057904        2.1489230399
 H         -0.4377412371        3.1411602070        2.0874650797
 H         -1.0283207023        0.4375019483        2.8790449772
 H          0.5410456891        1.2157965130        2.8244167874
 H         -2.5755945411        0.1411916655        1.4534343049
 H         -4.1777523116       -1.4617045613        0.6380877744
 H         -4.7361152760       -3.4236263826       -0.6085404510
 H         -3.5703381007       -4.7150579231       -0.2983642710
 H         -3.5798579564       -3.9020079340       -1.8591157247
 H         -1.0117810838       -3.7893854983       -1.0211898528
 H          3.6825869126       -1.4744937366       -1.1654953255
 H          5.4580847372        0.0522460148       -1.9085044776
 H          6.0626041986        0.4641096035       -0.3045069892
 H          5.4763494822        1.7393937288       -1.3700074107
 H          3.8333740196        2.5025710742        0.3696520923
 H          1.6282787947        2.2281012888        1.3035075162
  47
        -61.77728455
 C         -2.3070878636        6.1396496160       -0.9756718921
 C         -1.3252424579        5.1337765366       -0.3878948089
 C         -2.0348315346        3.8895620504        0.1405365682
 C         -1.0517799776        2.8778961558        0.7269185851
 C         -1.7797314486        1.6459754917        1.2586118562
 C         -0.8816216026        0.5574277877        1.8764795564
 N         -0.1847005739       -0.2804312564        0.9188150411
 C         -0.9113418178       -1.3260673169        0.3402619369
 C         -2.2956590296       -1.4315711484        0.5075112630
 C         -3.0373819460       -2.4554266111       -0.0588552280
 C         -2.4434858368       -3.4309403768       -0.8383939870
 C         -3.2267994883       -4.5380545088       -1.4725238644
 C         -1.0682298154       -3.3494604151       -1.0063919813
 C         -0.3220115585       -2.3400909292       -0.4253723483
 S          1.4233607566       -2.4725509280       -0.6615061717
 C          1.9536302246       -0.8673758324       -0.1484347496
 C          3.2576686324       -0.5507056736       -0.4847599572
 C          3.8463423417        0.6421105359       -0.0894688882
 C          5.2613550432        0.9577982862       -0.4629019335
 C          3.0668891901        1.5058445130        0.6581963252
 C          1.7551744076        1.1995074743        0.9789249232
 C          1.1419725919        0.0071809650        0.5859057120
 H         -1.7816777028        7.0170265506       -1.3454083851
 H         -3.0224014068        6.4604726376       -0.2212858849
 H         -2.8582767120        5.6960947765       -1.8020379738
 H         -0.7680544771        5.6041893729        0.4256911161
 H         -0.6046658116        4.8386050610       -1.1539920968
 H         -2.5935839484        3.4212701420       -0.6732295455
 H         -2.7544434594        4.1840163292        0.9086825913
 H         -0.4960783245        3.3597243940        1.5354105118
 H         -0.3428882925        2.5824988423       -0.0486552918
 H         -2.3512374366        1.2156659918        0.4351912961
 H         -2.4892650267        1.9642426200        2.0271070980
 H         -1.4993818039       -0.1010094277        2.4961504290
 H         -0.1529264157        1.0107870601        2.5490242692
 H         -2.8389101444       -0.7157380380        1.0980327004
 H         -4.1031592372       -2.4792846860        0.1169021127
 H         -4.2793047050       -4.4664994515       -1.2102016555
 H         -2.8499884090       -5.5062612966       -1.1454236920
 H         -3.1343133149       -4.4949251727       -2.5572296846
 H         -0.5473061477       -4.0969103934       -1.5868178023
 H          3.8237993977       -1.2716967174       -1.0562974156
 H          5.9288979203        0.1635130272       -0.1321206978
 H          5.5806675356        1.8937241808       -0.0115359716
 H          5.3573701114        1.0432874655       -1.5449224029
 H          3.4770076423        2.4447050531        1.0011012224
 H          1.2179561762        1.9286249271        1.5567905690
  47
        -61.77639221
 C         -4.6268554718        3.7847242006       -0.3952810576
 C         -3.3548766924        3.8686658523       -1.2311355076
 C         -2.0776328527        3.8499306728       -0.3909344041
 C         -1.8423720074        2.5147770266        0.3140343100
 C         -0.5067036103        2.5150586000        1.0532049527
 C         -0.1526981113        1.2023143090        1.7760293961
 N          0.2705537513        0.1222087008        0.9046104561
 C         -0.6525068457       -0.8541174052        0.5184469899
 C         -2.0184251191       -0.7172606950        0.7796500552
 C         -2.9499498292       -1.6734630255        0.4116498759
 C         -2.5749811668       -2.8247849203       -0.2561580134
 C         -3.5633449035       -3.8692305595       -0.6727222877
 C         -1.2226471446       -2.9800202376       -0.5258686640
 C         -0.2881348342       -2.0348096002       -0.1421129352
 S          1.3874960364       -2.4636105780       -0.5020046152
 C          2.2003717888       -0.9222521863       -0.2146234169
 C          3.5097770200       -0.8637367255       -0.6629241521
 C          4.3082964069        0.2457999314       -0.4391840967
 C          5.7243173192        0.3069915700       -0.9218331722
 C          3.7372284269        1.2978446397        0.2580150707
 C          2.4234944546        1.2507645625        0.6888770887
 C          1.5974982740        0.1433421315        0.4626499405
 H         -5.5026884458        3.8960468494       -1.0304506146
 H         -4.6439708555        4.5749502628        0.3525276875
 H         -4.6995025802        2.8263916514        0.1121380666
 H         -3.3750894677        4.7951592422       -1.8099642730
 H         -3.3309518042        3.0373582042       -1.9393366508
 H         -2.1234664948        4.6497637148        0.3524594850
 H         -1.2267913758        4.0564189355       -1.0452515590
 H         -1.8521049314        1.7153175301       -0.4292216142
 H         -2.6522757431        2.3385248720        1.0237217195
 H         -0.5184343570        3.3125119890        1.8010242815
 H          0.2757649792        2.7485792384        0.3297586191
 H         -0.9980775493        0.8655353185        2.3762877757
 H          0.6623946028        1.3939316191        2.4816457916
 H         -2.3964288668        0.1510179406        1.2871750581
 H         -3.9891052738       -1.5027903660        0.6532402607
 H         -4.5672426208       -3.6005649759       -0.3537514193
 H         -3.3041687082       -4.8330480738       -0.2364551423
 H         -3.5608394305       -3.9837002266       -1.7561781880
 H         -0.8693179740       -3.8654180496       -1.0340727472
 H          3.9043871820       -1.7249436977       -1.1821650416
 H          6.0243197195       -0.6402459661       -1.3620451312
 H          6.3979874244        0.5399505613       -0.0983669399
 H          5.8342751392        1.0887964751       -1.6731757725
 H          4.3223695114        2.1805516323        0.4718506660
 H          2.0626380668        2.1119728902        1.2221421872
  47
        -61.77563243
 C         -1.1397762133        3.0615924640       -2.3583950222
 C         -1.3766296125        4.1139914484       -1.2812805724
 C         -2.4378384507        3.7063555341       -0.2565295916
 C         -2.1636546361        2.3883853046        0.4714560991
 C         -0.8993085409        2.4406644659        1.3247298401
 C         -0.5166805766        1.1094464795        1.9947384773
 N         -0.0414089543        0.0921601140        1.0746685637
 C         -0.9248304465       -0.8938030033        0.6235904977
 C         -2.2949654612       -0.8337348079        0.8942456593
 C         -3.1863789667       -1.8016925134        0.4635558841
 C         -2.7660070693       -2.8885378110       -0.2809390042
 C         -3.7103585206       -3.9454102824       -0.7628735225
 C         -1.4098514113       -2.9661912268       -0.5632532471
 C         -0.5147466394       -2.0095103437       -0.1182978231
 S          1.1734955426       -2.3375163305       -0.5213061868
 C          1.9241625447       -0.7895473255       -0.1223403599
 C          3.2252964076       -0.6441908912       -0.5696946689
 C          3.9837921038        0.4760907227       -0.2621809498
 C          5.3866633460        0.6156931781       -0.7656543060
 C          3.3806944322        1.4417100580        0.5228603210
 C          2.0716982879        1.3081446944        0.9555449934
 C          1.2839926283        0.1960640235        0.6397638639
 H         -0.4854964453        3.4571883392       -3.1320876781
 H         -2.0806575821        2.7707068284       -2.8208494826
 H         -0.6686683154        2.1732560774       -1.9449932867
 H         -1.7099960370        5.0395502516       -1.7573617858
 H         -0.4337316785        4.3351775585       -0.7777525156
 H         -3.3975644424        3.6144199520       -0.7711415563
 H         -2.5356803722        4.5070942565        0.4813694235
 H         -2.0818782448        1.5849920058       -0.2605859011
 H         -3.0253745743        2.1747647908        1.1091247737
 H         -1.0281428961        3.1888834048        2.1111993162
 H         -0.0747985822        2.7601570077        0.6893123644
 H         -1.3607149104        0.7143655196        2.5594002233
 H          0.2766937047        1.2925384246        2.7268439678
 H         -2.7106180192       -0.0172915610        1.4560585242
 H         -4.2308550109       -1.6909376980        0.7165081342
 H         -4.7333793740       -3.7059116889       -0.4839898733
 H         -3.4492801880       -4.9116787110       -0.3324958194
 H         -3.6558098646       -4.0390192811       -1.8466756639
 H         -1.0211616380       -3.7977397714       -1.1329116097
 H          3.6517091817       -1.4441233361       -1.1572933985
 H          5.9398024296       -0.3104678287       -0.6211071159
 H          5.9044993790        1.4201789905       -0.2492253571
 H          5.3826760052        0.8385985824       -1.8329170808
 H          3.9316366311        2.3257362877        0.8097513632
 H          1.6882574924        2.1056433007        1.5664116068
