  47
        -61.78303651
 C         -3.2650430323        1.1296876775        1.7867403719
 C         -3.5006008892        2.4379215439        1.0406135765
 C         -2.2686070629        3.3449856659        0.9985520248
 C         -1.0339581275        2.7219076614        0.3477637530
 C         -1.2360982190        2.3866372600       -1.1281659428
 C          0.0075358220        1.7205738504       -1.7272061788
 N          0.3470082364        0.5148835979       -1.0033346922
 C         -0.6096563681       -0.4836295158       -0.8301764327
 C         -1.6081593793       -0.7145783106       -1.7741204055
 C         -2.5724009233       -1.6864175470       -1.5729993559
 C         -2.5639977532       -2.4841881902       -0.4390905895
 C         -3.6107862304       -3.5287675851       -0.2005870540
 C         -1.5507054538       -2.2849530719        0.4907088101
 C         -0.6009028340       -1.2985407201        0.3049737339
 S          0.6099982038       -1.0383205407        1.5755931355
 C          1.9372173383       -0.4443710338        0.5602791260
 C          3.2365868242       -0.6861638334        0.9646306218
 C          4.3129094554       -0.1919644223        0.2392310942
 C          5.7171548272       -0.4167337710        0.7102315888
 C          4.0441469089        0.5265262612       -0.9166378481
 C          2.7455347202        0.7475352600       -1.3385671306
 C          1.6591954778        0.2837447641       -0.5987208528
 H         -4.2034149538        0.5927781680        1.9079269818
 H         -2.8503589169        1.3224077362        2.7737792772
 H         -2.5803377671        0.4830648711        1.2446151970
 H         -4.3044618242        2.9885435816        1.5360798342
 H         -3.8386146353        2.2196894119        0.0258981512
 H         -2.0095187441        3.6246082897        2.0227034651
 H         -2.5291861796        4.2618230447        0.4627446360
 H         -0.7593752531        1.8179879868        0.8917560656
 H         -0.2003291643        3.4235022796        0.4412257838
 H         -1.4440082723        3.2993027692       -1.6908812675
 H         -2.0912458821        1.7205836241       -1.2364691840
 H          0.8488780513        2.4086879442       -1.6262760492
 H         -0.1462411044        1.5257023099       -2.7975102345
 H         -1.6351964075       -0.1280406776       -2.6788604043
 H         -3.3414417594       -1.8238466433       -2.3193413403
 H         -4.2739424834       -3.6159650150       -1.0574660746
 H         -4.2070741393       -3.2723915409        0.6748200168
 H         -3.1483150832       -4.4971068858       -0.0155032028
 H         -1.5102809863       -2.8833920485        1.3886162091
 H          3.4021860214       -1.2495236560        1.8709660308
 H          5.8149848865       -1.3925314873        1.1807037008
 H          5.9904454748        0.3399485496        1.4466700510
 H          6.4182431141       -0.3512933348       -0.1184573058
 H          4.8613439706        0.9133762929       -1.5080703161
 H          2.5760387938        1.2836151295       -2.2597283528
