  16
        -24.66539108
 C         -3.1945247020        1.0640767206       -0.0015499326
 C         -2.6410402376       -0.1449806203        0.0016156789
 C         -1.2281928152       -0.4024457944        0.0008412462
 C         -0.6055580523       -1.6290600914        0.0005803052
 N          0.7336443521       -1.6130100508       -0.0005616069
 C          1.2174281263       -0.4123010761       -0.0008404389
 C          2.6210331765       -0.1134794544       -0.0015564932
 C          3.1335123527        1.1135908387        0.0018919717
 S         -0.0191641160        0.8439002432       -0.0001845983
 H         -4.2618284947        1.1966951081       -0.0008964400
 H         -2.5924859009        1.9578958934       -0.0051471315
 H         -3.2582253724       -1.0345430423        0.0048417547
 H         -1.1168594450       -2.5754173877        0.0010619043
 H          3.2547464133       -0.9895854774       -0.0048426834
 H          2.5031720571        1.9880833386        0.0056086171
 H          4.1958004132        1.2809318943        0.0013440429
  16
        -24.66460525
 C         -3.3959816562        0.7634953959       -0.0016962563
 C         -2.6648039796       -0.3471771348       -0.0015296767
 C         -1.2294040487       -0.3865880087        0.0001065543
 C         -0.4262285045       -1.5041496161       -0.0010629685
 N          0.8949336428       -1.2874107439       -0.0003218378
 C          1.1897712154       -0.0272133195        0.0015514163
 C          2.5114429733        0.5349364731        0.0016934331
 C          3.6160123391       -0.2071578760       -0.0047469654
 S         -0.2216329270        1.0272091925        0.0028184421
 H         -4.4710074954        0.7321775282       -0.0032915738
 H         -2.9371513670        1.7386604172       -0.0001472710
 H         -3.1392819921       -1.3203839021       -0.0031507638
 H         -0.7892916370       -2.5168020477       -0.0025632484
 H          2.5570796351        1.6154322213        0.0067981892
 H          3.5543322534       -1.2813194910       -0.0101591668
 H          4.5954720358        0.2377227042       -0.0049236896
  16
        -24.66394663
 C         -3.6525808906       -0.2200505180        0.0010166435
 C         -2.5401025583        0.5094056234       -0.0003972009
 C         -1.2044615471       -0.0253508643       -0.0005292995
 C         -0.7703484444       -1.3312784095       -0.0007420157
 N          0.5560021891       -1.5115122815       -0.0003876915
 C          1.2152324826       -0.3967755107        0.0000309233
 C          2.6475836328       -0.3112441047        0.0005179007
 C          3.3377993666        0.8253988866        0.0002934945
 S          0.1779539328        1.0261040418        0.0000338214
 H         -4.6228882833        0.2441019532        0.0011625909
 H         -3.6329689409       -1.2958812564        0.0018505971
 H         -2.6023530834        1.5896134824       -0.0012031255
 H         -1.4084031502       -2.1960187469       -0.0011989044
 H          3.1429690882       -1.2722787725        0.0010834034
 H          2.8454262712        1.7844291954       -0.0001896401
 H          4.4131642349        0.8321052847        0.0005374593
