  27
        -36.83278165
 C         -3.0543399524       -1.4900484711        0.5178968503
 C         -2.6364742384       -0.3860582432       -0.0869316076
 C         -1.2878093177        0.1758328411       -0.0308274466
 C         -1.1434192724        1.5530999385       -0.2032536993
 C          0.0919748552        2.1755308082       -0.1493908975
 C          0.2171515818        3.6618992765       -0.3010097957
 C          1.2181110921        1.3963433035        0.0685674976
 C          1.1270931859        0.0165492568        0.2201367791
 C          2.3081729307       -0.8129573988        0.4493824527
 C          3.5450142556       -0.5141014823        0.0756583309
 C         -0.1362720885       -0.5921976921        0.1763991097
 O         -0.2195993352       -1.9693027833        0.3185597930
 C         -0.0642206859       -2.6700105975       -0.8950442548
 H         -4.0766519335       -1.8200170820        0.4324124352
 H         -2.3978623887       -2.0944280481        1.1180410561
 H         -3.3419271578        0.2095685982       -0.6557943393
 H         -2.0309873525        2.1481741146       -0.3689454224
 H         -0.6859477521        4.0869762952       -0.7316152394
 H          1.0636122069        3.9143445566       -0.9365554365
 H          0.3812972380        4.1233600511        0.6729451966
 H          2.1859162190        1.8704872682        0.1347553190
 H          2.1087997553       -1.7510230512        0.9514692403
 H          3.7851441527        0.3914103680       -0.4561989395
 H          4.3692742596       -1.1760438053        0.2797180779
 H         -0.1240775577       -3.7287165217       -0.6479744605
 H          0.9061297062       -2.4558499850       -1.3582158550
 H         -0.8612086833       -2.4151057605       -1.6030294245
