  17
        -22.49327131
 C          2.5239407079        1.0223404963       -0.0000521044
 C          1.2039126130        0.3173027255        0.0000468906
 C         -0.0000000419        1.0096169603        0.0000859475
 C         -1.2039127415        0.3173024254        0.0000600897
 C         -2.5239406986        1.0223405051       -0.0000557930
 C         -1.1337923420       -1.0729661566       -0.0000004085
 N          0.0000001334       -1.7491145662       -0.0000207929
 C          1.1337923239       -1.0729660681       -0.0000008427
 H          2.3884859424        2.1012602173        0.0016141170
 H          3.1011622708        0.7435753205       -0.8807340001
 H          3.1027471330        0.7409836303        0.8787455988
 H         -0.0000003538        2.0920920959        0.0001248446
 H         -2.3884868594        2.1012582231        0.0026544813
 H         -3.1032248084        0.7401693574        0.8781611322
 H         -3.1006833151        0.7443922834       -0.8813142335
 H         -2.0358100076       -1.6718997350        0.0000689454
 H          2.0358102800       -1.6718991979       -0.0000303147
