25
 energy: -42.106103293994 gnorm: 0.000064547119 xtb: 6.4.1 (23d549d)
C        -3.09468380360000   -3.11382576580000   -0.33804933370000
C        -3.19129644610000   -1.84888956190000    0.05777547700000
C        -2.07959083030000   -0.93540613640000    0.01970315710000
N        -0.86104450920000   -1.18749938530000   -0.37303319480000
C        -0.17569310210000   -0.02466311640000   -0.21867118870000
C         1.26791450770000    0.05659577870000   -0.54363586480000
O         1.75619237540000   -0.26121410120000   -1.59391387120000
O         1.95497632010000    0.53982647300000    0.49877580350000
C         3.37134712510000    0.65516269610000    0.34004480580000
C         4.07084190890000   -0.66533624260000    0.62596762380000
C        -1.03902286470000    0.93939723690000    0.27438347080000
C        -0.92714797630000    2.33881186560000    0.58823956100000
C         0.09169314200000    3.12385328050000    0.25439224820000
O        -2.24590343900000    0.34099668230000    0.42322866180000
H        -3.93688714900000   -3.78194008760000   -0.30358291680000
H        -2.16035676460000   -3.49899973840000   -0.70695357670000
H        -4.11384392790000   -1.42744703710000    0.43122687350000
H         3.67243410180000    1.42577841250000    1.05293058040000
H         3.58782125350000    0.98332577440000   -0.68229955580000
H         3.82116583910000   -1.01379383770000    1.62512205900000
H         5.14637261920000   -0.53152988130000    0.55300046140000
H         3.75779935290000   -1.41367338240000   -0.09777237040000
H        -1.78249552840000    2.73750264910000    1.11756108950000
H         0.93915002800000    2.75788336540000   -0.29681105720000
H         0.10093589660000    4.16510769600000    0.52382037470000
