  24
        -36.74287299
 C          2.6574146923       -2.3483890164        0.8981886358
 C          1.9305906044       -1.1224871548        0.4410117893
 C          2.6153255886        0.0182781332        0.0401554676
 C          1.9496474735        1.1597700370       -0.3851426279
 C          2.7011279965        2.3830325013       -0.8141855007
 C          0.5571829145        1.1569195132       -0.4090855168
 C         -0.1256609964        0.0274277797       -0.0122808547
 S         -1.9203437089       -0.0996780261        0.0020573221
 C         -2.5837495217        1.4878637388       -0.5925359035
 O         -2.2992930751       -1.1189964096       -0.9400127613
 O         -2.3410372191       -0.2724962082        1.3670720068
 C          0.5411945350       -1.1046973870        0.4097211560
 H          3.7338428671       -2.2034076319        0.8608229100
 H          2.3955906685       -3.1968166485        0.2682158370
 H          2.3720186209       -2.5947898377        1.9195352441
 H          3.6961414514        0.0174683559        0.0597729396
 H          3.7739238650        2.2261404496       -0.7443849418
 H          2.4324938302        3.2317415983       -0.1868488704
 H          2.4532344520        2.6384733369       -1.8433708035
 H          0.0302276966        2.0386079400       -0.7379299368
 H         -2.2386206706        1.6524688960       -1.6046438095
 H         -2.2699324050        2.2719828189        0.0836535080
 H         -3.6620167931        1.3861334840       -0.5751313300
 H         -0.0379011331       -1.9636155564        0.7103067782
