54
 energy: -79.686177829096 gnorm: 0.000038283859 xtb: 6.4.1 (23d549d)
C         5.82942788330000   -0.43769418870000    0.73126999290000
C         5.03083942880000   -0.10113368470000   -0.26920372020000
C         3.56360917280000   -0.04292007610000   -0.18037747290000
C         2.92827159510000    0.81719527390000    0.73066356530000
C         3.65291403080000    1.70128582960000    1.57277981230000
C         3.01817652620000    2.52054636580000    2.45489255130000
C         1.61223281260000    2.51474006560000    2.55166493670000
C         0.87665203630000    1.70597236400000    1.74287544160000
C         1.49999026840000    0.84408144100000    0.80267834160000
C         0.74006338560000    0.03336008040000   -0.04920183570000
C        -0.74007293740000    0.06901450940000    0.02170416070000
C        -1.45028500000000    0.98940323690000   -0.75938194940000
C        -0.78202231320000    1.90223419410000   -1.61615068970000
C        -1.47828063400000    2.77732310260000   -2.39075469070000
C        -2.88703459700000    2.78411554240000   -2.36044500550000
C        -3.56330090400000    1.92404406270000   -1.55055376860000
C        -2.87774104400000    1.00726488350000   -0.71107645110000
C        -3.56532377920000    0.11332814420000    0.12685364810000
C        -5.03559027480000    0.15173561480000    0.15812132800000
C        -5.81763953150000   -0.86937260810000   -0.15441934540000
C        -2.84928420620000   -0.79290441930000    0.92651371530000
C        -3.49080703160000   -1.67502835690000    1.83544067920000
C        -2.77886617460000   -2.55070443670000    2.59606450220000
C        -1.37350038200000   -2.59983356490000    2.50330670030000
C        -0.71542148810000   -1.75290009160000    1.66724017360000
C        -1.42062404450000   -0.81957657090000    0.86291680070000
C         1.37034706870000   -0.81027137230000   -0.97251614880000
C         0.62103567410000   -1.63862918930000   -1.84786460600000
C         1.23935960180000   -2.47534366290000   -2.72432812270000
C         2.64629177210000   -2.53823556560000   -2.77095187110000
C         3.39894084200000   -1.75623350170000   -1.94937496410000
C         2.79672514640000   -0.85482811150000   -1.03287549930000
H         6.90028179740000   -0.47112443350000    0.61863500250000
H         5.43979354740000   -0.70742922350000    1.69934541320000
H         5.45110589770000    0.13958318400000   -1.23924175730000
H         4.72923183710000    1.72066146090000    1.49472122330000
H         3.58843679740000    3.18691172570000    3.08568176220000
H         1.12680004580000    3.16608681800000    3.26352417270000
H        -0.20218097890000    1.70774350450000    1.79809018940000
H         0.29779302650000    1.88498961360000   -1.64125703390000
H        -0.95902526450000    3.46821963250000   -3.03859175400000
H        -3.42572993590000    3.47675520170000   -2.99067099710000
H        -4.64291635060000    1.92396909110000   -1.54442683890000
H        -5.47391772130000    1.10066923970000    0.44600595970000
H        -5.41125903000000   -1.81681640530000   -0.46905897590000
H        -6.89185891580000   -0.79484998100000   -0.12245379630000
H        -4.56582716670000   -1.63293900300000    1.92214616980000
H        -3.28651330270000   -3.21248200310000    3.28271722630000
H        -0.82620043890000   -3.30593379860000    3.11037411520000
H         0.36277355500000   -1.77135490060000    1.60315003510000
H        -0.45715544830000   -1.59188687980000   -1.80016634360000
H         0.65892617230000   -3.10149645180000   -3.38590892780000
H         3.12213991360000   -3.21724612350000   -3.46351993580000
H         4.47623087720000   -1.82081100290000   -1.97974786750000
