  20
        -36.46956843
 C         -1.4734274614       -2.8509528701       -0.2829698699
 C         -2.2104936755       -1.7852813109        0.0078193004
 C         -1.7487398256       -0.4168828015        0.0353137221
 C         -2.5465317500        0.7313398861       -0.1175100730
 N         -1.8183024513        1.8270463203       -0.0668846272
 N         -0.5606525516        1.4438396762        0.1068497361
 C          0.4544135102        2.4425903387        0.2779348840
 C         -0.4511872498        0.0917865782        0.1785036663
 C          0.7574829982       -0.6451248584        0.4590036082
 C          1.9824028180       -0.3975007242        0.0205678740
 F          2.3637015890        0.5695716451       -0.8088909424
 F          3.0427615914       -1.1315897800        0.3516718791
 H         -1.8973475874       -3.8403048823       -0.2843852982
 H         -0.4344404135       -2.7768654564       -0.5549764414
 H         -3.2655771294       -1.9037033689        0.2213870969
 H         -3.6064402509        0.7876225350       -0.2644898327
 H         -0.0474074652        3.3756174143        0.5270762490
 H          1.0287495293        2.5831896298       -0.6394719670
 H          1.1323999641        2.1617630713        1.0843331279
 H          0.6387521834       -1.5237750651        1.0776356274
