  56
        -64.41938497
 C          2.5683395270       -2.5415656753       -0.8599959135
 C          2.3145516504       -1.3360849740       -1.3494032309
 C          1.3246346674       -0.4093038489       -0.7982561484
 C          0.1143450266       -0.9155639861       -0.3262262343
 C         -0.8867590070       -0.1123848023        0.1893454737
 C         -2.1828529866       -0.7343043999        0.6247287812
 C         -3.2935333788       -0.4706257334       -0.3978879212
 C         -4.6213133091       -1.0884898362        0.0314688800
 C         -5.7263015577       -0.8125634159       -0.9856681159
 C         -7.0484582027       -1.5027134294       -0.6484963407
 C         -7.7132584182       -0.9481323917        0.6061332524
 C         -0.6838091263        1.2750964121        0.2216222446
 C         -1.7023923773        2.1862623621        0.7402632502
 C         -1.9190802370        3.4145965628        0.2893428795
 C          0.5276638414        1.7792535028       -0.2415480239
 C          1.5362296333        0.9740280493       -0.7462247920
 C          2.8354652018        1.6246184370       -1.1329525267
 C          3.6794289246        1.9555304934        0.1074947745
 C          4.1432280330        0.7233315008        0.8850592444
 C          5.2808701679       -0.0245221959        0.1926119065
 C          5.6320841034       -1.3462550794        0.8750142671
 C          6.2077413729       -1.1699068361        2.2751837823
 H          3.2934438471       -3.1967815928       -1.3121748387
 H          2.0738314960       -2.9143310759        0.0220517868
 H          2.8554398487       -0.9956252705       -2.2231739551
 H         -0.0524612242       -1.9819612512       -0.3855218935
 H         -2.4887862508       -0.3394618752        1.5966444835
 H         -2.0486708275       -1.8127620489        0.7341185020
 H         -2.9912258029       -0.8837482856       -1.3633433541
 H         -3.4167035858        0.6072988951       -0.5250838883
 H         -4.9042940474       -0.6800911427        1.0033130971
 H         -4.4986706211       -2.1685005573        0.1462994291
 H         -5.3916206695       -1.1586403303       -1.9669848180
 H         -5.8901888090        0.2654350120       -1.0560418331
 H         -6.8737974907       -2.5738836475       -0.5230904025
 H         -7.7308315127       -1.3768529467       -1.4926876071
 H         -7.1086589206       -1.1431288273        1.4879275118
 H         -8.6858888083       -1.4121214134        0.7543701249
 H         -7.8566324439        0.1266460811        0.5165218066
 H         -2.3153509432        1.8058454937        1.5472137936
 H         -1.3624376783        3.8287286607       -0.5348138875
 H         -2.6782791651        4.0483857922        0.7155986491
 H          0.6970055281        2.8453615732       -0.1869748966
 H          2.6213163499        2.5592346225       -1.6582869880
 H          3.4108910869        0.9904134599       -1.8046513123
 H          3.0803864040        2.5844534328        0.7703402715
 H          4.5528078857        2.5348687437       -0.2021166790
 H          3.2970914621        0.0479639407        1.0268502949
 H          4.4789403474        1.0476249552        1.8717589197
 H          6.1672583059        0.6144371220        0.1619867920
 H          4.9938805410       -0.2430348510       -0.8370639489
 H          6.3644454012       -1.8723322013        0.2572632674
 H          4.7347951414       -1.9674543327        0.9242615202
 H          7.0738808271       -0.5116741062        2.2505837625
 H          6.5197459119       -2.1307311781        2.6788388456
 H          5.4696175639       -0.7439299915        2.9494729680
