  23
        -33.59212740
 C         -3.5587640763        1.1280486909       -0.3155535485
 C         -2.3481957680        1.3428307691        0.1836884988
 C         -1.1690634465        0.4887631430        0.0984706761
 N         -0.0194746308        1.1580422245        0.2199410417
 C          1.1428645712        0.5323063972        0.1442821743
 C          2.3239495329        1.3829008734        0.2260398509
 C          3.5057477952        1.1465126334       -0.3314972770
 C          1.1578768763       -0.8808063778        0.0364048091
 N          2.2992793953       -1.6290196776        0.0135566077
 N          0.0154009566       -1.5562719150       -0.0451347985
 C         -1.1429881217       -0.9085534529       -0.0501023234
 C         -2.3521830950       -1.7811231017       -0.1476457712
 H         -4.3382904742        1.8623928286       -0.1978430901
 H         -3.8228371625        0.2504764750       -0.8765635485
 H         -2.1375317435        2.2808749878        0.6819288801
 H          2.1485610005        2.3098825318        0.7561656609
 H          3.6996732696        0.2794804697       -0.9401255702
 H          4.3149796567        1.8510115774       -0.2363125244
 H          3.1175091337       -1.2373072977        0.4505558619
 H          2.1488457166       -2.6182540732        0.1392209908
 H         -2.0612883223       -2.8052910787        0.0724172297
 H         -2.7582274705       -1.7521475198       -1.1579161144
 H         -3.1215343720       -1.4553890170        0.5488016506
