  22
        -34.71180521
 C         -4.0501694723       -0.0134598749        0.0053312205
 C         -3.0384524280       -0.8718919766       -0.0002843706
 C         -1.6348660823       -0.4753575970       -0.0017256722
 C         -0.6207675597       -1.4628969685       -0.0036769964
 C          0.7151634454       -1.1186715425       -0.0026098678
 C          1.7521635465       -2.1336524419       -0.0024544926
 C          3.0555884449       -1.8762250160        0.0071549096
 C          0.9970287685        0.2683145616       -0.0010685084
 N          2.1312920454        0.9451556040       -0.0004587923
 C          1.7871649209        2.2459417065       -0.0000833431
 C          0.4210101435        2.4016519682       -0.0002081879
 N         -0.0872091777        1.1469082948       -0.0007728978
 N         -1.3616850070        0.8099492085       -0.0005231539
 H         -5.0746688224       -0.3429609851        0.0070066460
 H         -3.8687447531        1.0472403239        0.0075856854
 H         -3.2144779734       -1.9393139215       -0.0028995760
 H         -0.9069212762       -2.5039710785       -0.0053912134
 H          1.3874836323       -3.1537877582       -0.0097950560
 H          3.4152190960       -0.8617039782        0.0143392050
 H          3.7832510023       -2.6700985153        0.0084433577
 H          2.5411652282        3.0084348880        0.0003355820
 H         -0.2031230262        3.2696563158        0.0002971468
  22
        -34.71165064
 C         -3.8073164859       -1.4642950452       -0.0001884948
 C         -3.1427483134       -0.3161921760       -0.0000143088
 C         -1.6938687782       -0.1544988138        0.0004931576
 C         -0.7839223310       -1.2380669762        0.0010896849
 C          0.5790199576       -1.0263345907        0.0006742509
 C          1.5092628066       -2.1403875841        0.0007429102
 C          2.8319835273       -2.0153364746        0.0009192827
 C          1.0011851443        0.3248687583       -0.0000715642
 N          2.1974852192        0.8838336766       -0.0007033305
 C          1.9859641253        2.2131150465       -0.0013136977
 C          0.6427340434        2.5055919480       -0.0010538803
 N          0.0111837385        1.3079244335       -0.0002540783
 N         -1.2899870449        1.0971313151       -0.0001215037
 H         -4.8833577356       -1.4831018205       -0.0010537469
 H         -3.3208088427       -2.4248529255        0.0007120389
 H         -3.6747026508        0.6251525257       -0.0008864057
 H         -1.1624592236       -2.2472599875        0.0018280843
 H          1.0442255057       -3.1189478058        0.0005919409
 H          3.2920452374       -1.0422122065        0.0008525894
 H          3.4760462645       -2.8784585792        0.0010765568
 H          2.8130169604        2.8956489781       -0.0019503689
 H          0.1086509653        3.4317163884       -0.0013990177
  22
        -34.71033554
 C         -3.9438718657       -0.2396099497       -0.0007830007
 C         -2.8615140650       -1.0070719799        0.0011480391
 C         -1.4969885403       -0.4909071048        0.0008697862
 C         -0.4043858237       -1.3927211277        0.0022146217
 C          0.8935415655       -0.9284708817        0.0018448396
 C          2.0940991374       -1.7479611776        0.0029417895
 C          2.1296643077       -3.0754857838       -0.0040323392
 C          1.0481911543        0.4759898644        0.0006098339
 N          2.1295533963        1.2336244866        0.0003110667
 C          1.6847321536        2.5031225494       -0.0012929828
 C          0.3088207056        2.5542269943       -0.0018395750
 N         -0.1012743517        1.2646833683       -0.0006650200
 N         -1.3401806831        0.8142816534       -0.0006149705
 H         -4.9357869464       -0.6570413024       -0.0006151206
 H         -3.8554953383        0.8327503143       -0.0026819328
 H         -2.9450742709       -2.0856491711        0.0030369033
 H         -0.6098954249       -2.4509154688        0.0038707279
 H          3.0080381764       -1.1706279549        0.0090368304
 H          1.2401198017       -3.6830557808       -0.0114763892
 H          3.0646668196       -3.6080869829       -0.0029635224
 H          2.3762637422        3.3227112562       -0.0017985150
 H         -0.3782837754        3.3733682822       -0.0029763137
  22
        -34.71015853
 C         -3.5659276050       -1.6734179541        0.0110281806
 C         -3.0012693108       -0.4730872115       -0.0039488359
 C         -1.5713889509       -0.1867240472       -0.0030302829
 C         -0.5745512983       -1.1924403485        0.0001832162
 C          0.7621621008       -0.8572365922        0.0018470009
 C          1.8749901637       -1.7929007804        0.0047887601
 C          1.7792278198       -3.1173785980       -0.0008436828
 C          1.0591430001        0.5244264391        0.0007675898
 N          2.2108637075        1.1692314943        0.0026024418
 C          1.8956839700        2.4774592451       -0.0004022645
 C          0.5321888293        2.6665929240       -0.0042770548
 N         -0.0049716572        1.4243350915       -0.0034522562
 N         -1.2817572832        1.0968239335       -0.0056371878
 H         -4.6365064732       -1.7832853350        0.0098147992
 H         -3.0003055328       -2.5895052291        0.0256801369
 H         -3.6120625347        0.4190244946       -0.0166839195
 H         -0.8740323833       -2.2260243795        0.0008009233
 H          2.8418374767       -1.3093858287        0.0114527532
 H          0.8343320124       -3.6346491107       -0.0085736217
 H          2.6571203619       -3.7396028215        0.0016907692
 H          2.6662064991        3.2232355012        0.0004577950
 H         -0.0696402385        3.5502651114       -0.0073336190
