  23
        -37.83785764
 C          1.9969180035       -3.3829605971        0.0550678605
 C          0.8137806860       -2.7747509100        0.0378336884
 C          0.6222423191       -1.3539011787        0.0218877507
 S          1.9283254069       -0.2080850779        0.0204291102
 C          0.8479695540        1.1557288279       -0.0045619670
 C          1.3857171747        2.4871426614       -0.0168286122
 C          0.6630777860        3.6027532083       -0.0920010690
 C         -0.4606731277        0.7220889559       -0.0046851150
 C         -0.5835219981       -0.6882216981        0.0004735113
 O         -1.7924611821       -1.3287419848       -0.0240563151
 C         -2.8439921440       -0.4585202535       -0.3886054542
 C         -2.7332629922        0.8655384844        0.3675155450
 O         -1.5503116796        1.5498670111        0.0069541710
 H          2.0813979421       -4.4546733034        0.0619005208
 H          2.9144028333       -2.8181204849        0.0622706102
 H         -0.1082935686       -3.3410999310        0.0325874427
 H          2.4654437799        2.5345340366        0.0399217402
 H         -0.4095983566        3.5748410516       -0.1550419016
 H          1.1326651191        4.5707273191       -0.0905123527
 H         -3.7711432569       -0.9764821412       -0.1399945639
 H         -2.8082449098       -0.2619115769       -1.4692541455
 H         -2.7339895741        0.6658612050        1.4481241605
 H         -3.5603445086        1.5308758355        0.1165130730
