23
 energy: -37.837857637195 gnorm: 0.000121986595 xtb: 6.4.1 (23d549d)
C         1.99691800350000   -3.38296059710000    0.05506786050000
C         0.81378068600000   -2.77475091000000    0.03783368840000
C         0.62224231910000   -1.35390117870000    0.02188775070000
S         1.92832540690000   -0.20808507790000    0.02042911020000
C         0.84796955400000    1.15572882790000   -0.00456196700000
C         1.38571717470000    2.48714266140000   -0.01682861220000
C         0.66307778600000    3.60275320830000   -0.09200106900000
C        -0.46067312770000    0.72208895590000   -0.00468511500000
C        -0.58352199810000   -0.68822169810000    0.00047351130000
O        -1.79246118210000   -1.32874198480000   -0.02405631510000
C        -2.84399214400000   -0.45852025350000   -0.38860545420000
C        -2.73326299220000    0.86553848440000    0.36751554500000
O        -1.55031167960000    1.54986701110000    0.00695417100000
H         2.08139794210000   -4.45467330340000    0.06190052080000
H         2.91440283330000   -2.81812048490000    0.06227061020000
H        -0.10829356860000   -3.34109993100000    0.03258744270000
H         2.46544377990000    2.53453403660000    0.03992174020000
H        -0.40959835660000    3.57484105160000   -0.15504190160000
H         1.13266511910000    4.57072731910000   -0.09051235270000
H        -3.77114325690000   -0.97648214120000   -0.13999456390000
H        -2.80824490980000   -0.26191157690000   -1.46925414550000
H        -2.73398957410000    0.66586120500000    1.44812416050000
H        -3.56034450860000    1.53087583550000    0.11651307300000
