  22
        -29.87946168
 C          0.5392041258        3.1882803741       -0.2827483534
 C          0.9112916430        2.0446638669        0.2754767984
 C          0.1855724792        0.7842391325        0.1246899374
 C         -1.2074654333        0.7764592713        0.1106918076
 C         -1.9094059122       -0.4149579443        0.0134579034
 C         -3.4039728451       -0.4536816662       -0.0264974849
 C         -1.1499527328       -1.5822628581       -0.0473189669
 N          0.1635138699       -1.6007345368       -0.0530463762
 C          0.8436356128       -0.4579266377        0.0158215632
 C          2.2974936205       -0.5591944371       -0.0611072568
 C          2.9456012614       -1.7176016152       -0.0275327317
 H          1.0971207571        4.0975442788       -0.1375350992
 H         -0.3244352220        3.2561476241       -0.9235629060
 H          1.8007790838        2.0120323004        0.8909157026
 H         -1.7425049738        1.7118270678        0.2039122517
 H         -3.8272493277        0.4458375461        0.4147934165
 H         -3.7810026051       -1.3238489436        0.5067059071
 H         -3.7463482855       -0.5196991039       -1.0599206381
 H         -1.6303410147       -2.5521951168       -0.0953668041
 H          2.8393260889        0.3701109959       -0.1661178714
 H          2.4040438288       -2.6424785541        0.0684902039
 H          4.0185751873       -1.7725214603       -0.0964387628
  22
        -29.87902959
 C          1.6242594960        2.6035265594        0.4345370418
 C          0.5551530214        2.1952265757       -0.2354990677
 C         -0.0232223424        0.8559637253       -0.1632700375
 C         -1.4113854604        0.7292714297       -0.1363611104
 C         -2.0087674109       -0.5109771833        0.0214946010
 C         -3.4945313166       -0.6816678912        0.0369169118
 C         -1.1500517478       -1.6012010450        0.1555269863
 N          0.1584829588       -1.5145392073        0.0802540355
 C          0.7380688732       -0.3281475559       -0.0946721189
 C          2.1865880239       -0.3378553712       -0.2726661560
 C          2.9564021588       -1.3485208290        0.1105898210
 H          1.9833230772        3.6161708727        0.3592277905
 H          2.1646469584        1.9499119274        1.0987340308
 H          0.0051201329        2.8985599510       -0.8501328792
 H         -2.0247938814        1.6176625810       -0.2161796574
 H         -3.9898628629        0.2509095901        0.2974853080
 H         -3.7855973055       -1.4509332554        0.7491596384
 H         -3.8437114260       -0.9891592366       -0.9494878292
 H         -1.5432998561       -2.5978219633        0.3163154078
 H          2.6093446008        0.5295982475       -0.7611513732
 H          2.5296932194       -2.2042684424        0.6044826882
 H          4.0202683587       -1.3496276550       -0.0548220318
  22
        -29.87597060
 C          1.6660152953        2.4374413771       -0.4885185184
 C          0.7791735319        1.9452740245        0.3628468735
 C          0.0765591952        0.6718932283        0.1880047023
 C         -1.3042372105        0.6516355323        0.3723614653
 C         -2.0448166617       -0.4888834307        0.0986321342
 C         -3.5238737443       -0.5429108345        0.3135420228
 C         -1.3377809828       -1.5837244585       -0.3908367806
 N         -0.0297049226       -1.6026544498       -0.5309469839
 C          0.6892692063       -0.5270827058       -0.2200119511
 C          2.1365049008       -0.7405569073       -0.2967920632
 C          3.0273394809       -0.2602875692        0.5578727676
 H          2.1162822718        3.4042207571       -0.3413019360
 H          1.9761637381        1.8890771137       -1.3620395202
 H          0.4606350888        2.5335415705        1.2156535566
 H         -1.8047358531        1.5503598147        0.7091887303
 H         -3.9629424611        0.4497035568        0.2419803532
 H         -3.7402863959       -0.9389669928        1.3064701907
 H         -3.9955556907       -1.1953463364       -0.4179450756
 H         -1.8502130475       -2.4945347452       -0.6753325619
 H          2.4355803403       -1.4368880093       -1.0686648787
 H          2.7490888415        0.3932746080        1.3676807725
 H          4.0726020028       -0.5061327492        0.4789578380
