  24
        -37.07017383
 C          4.0992166603       -0.7453732998       -0.6952042848
 C          3.3396096742        0.2289903118       -0.2094159656
 C          1.8910405092        0.1988810641       -0.0562936793
 C          1.1116757691       -0.9359922612       -0.2681008447
 C         -0.2694008382       -0.9546796585       -0.1008278937
 C         -0.9499637886       -2.2439138962       -0.2619091747
 C         -1.9168287529       -2.7007497298        0.5206936689
 C         -0.9110674736        0.2433747309        0.2346109414
 S         -2.6816987632        0.4125931243        0.3616521372
 C         -3.1632065399       -0.0542073648       -1.3293742048
 C         -0.1646793916        1.3901177714        0.4609502462
 C          1.2070123584        1.3538573332        0.3327686788
 F          1.8979110001        2.4906643435        0.5644717665
 H          5.1663910025       -0.6310206836       -0.7722274489
 H          3.7000389715       -1.6845976437       -1.0380023565
 H          3.8045875497        1.1545312184        0.1038632925
 H          1.5995473312       -1.8589547198       -0.5418368718
 H         -0.5500682004       -2.8723418703       -1.0494337744
 H         -2.3138646197       -2.1210277518        1.3362102249
 H         -2.3439212478       -3.6781504246        0.3725550129
 H         -4.2373128225        0.0866597361       -1.3870858125
 H         -2.9082279280       -1.0932139213       -1.5134984480
 H         -2.6603788412        0.6003770003       -2.0347638913
 H         -0.6556558898        2.3114344673        0.7316765147
