24
 energy: -42.128560241831 gnorm: 0.000103576681 xtb: 6.5.0 (unknown)
C           -2.21024932880000       -2.66841730620000       -0.53191605630000
C           -1.03572148100000       -2.78115310690000        0.07536304620000
C            0.01753364910000       -1.77002661880000        0.10607927580000
C            1.34289735710000       -2.20167244030000        0.01311497400000
C            2.39127766900000       -1.31459156190000       -0.03816694210000
C            2.14730979330000        0.06045930130000        0.02384341010000
O            3.24085153970000        0.86298771440000       -0.03780539140000
C            3.05881404590000        2.25878882570000        0.00432078730000
C            0.84121863490000        0.50720483250000        0.15897247970000
C           -0.22635059520000       -0.39068576920000        0.19881396540000
C           -1.58056495740000        0.10160949470000        0.42550349160000
C           -2.06533195130000        1.27884864850000        0.06648479820000
F           -1.44612610010000        2.23561314870000       -0.62167569930000
F           -3.30900359330000        1.67851405850000        0.33477204130000
H           -2.92285891410000       -3.47571039050000       -0.52905922180000
H           -2.49318131020000       -1.78502525420000       -1.07888507490000
H           -0.77516487400000       -3.71834743920000        0.55280677620000
H            1.54218455830000       -3.26205964820000       -0.04112016570000
H            3.41108988330000       -1.65408387280000       -0.12281310160000
H            4.05433549900000        2.68774638510000       -0.09746424090000
H            2.62392913750000        2.57834124920000        0.95675654350000
H            2.42765893260000        2.60681279480000       -0.81910300760000
H            0.63571969060000        1.55979499480000        0.25705539650000
H           -2.26431122070000       -0.55552177100000        0.94274953190000
