  20
        -34.65872449
 C         -3.6403101151        0.4884819062        0.0067335240
 C         -2.9225171620       -0.5769634947       -0.3253957902
 C         -1.4839566412       -0.7243839192       -0.1757060324
 C         -0.8967196939       -1.9547341798       -0.0236046112
 S          0.7941342626       -1.8881845741        0.1793741875
 C          0.7635996072       -0.1610533751        0.0367838907
 C          2.0992686462        0.4537645581        0.0302179162
 O          3.0818149192       -0.1941174979        0.2838755297
 O          2.1938816482        1.7500755372       -0.3039032513
 C         -0.5160387111        0.3268187871       -0.1412072587
 C         -0.8801702473        1.7316524815       -0.3206530865
 C         -0.5212915362        2.7218966527        0.4891501210
 H         -4.7078063943        0.5044941935       -0.1306550115
 H         -3.2013499106        1.3676752465        0.4453695553
 H         -3.4198445567       -1.4567160023       -0.7142323581
 H         -1.3991390777       -2.9023110953       -0.0046027351
 H          1.3260685339        2.1622892206       -0.4521121470
 H         -1.5211366313        1.9251825694       -1.1731589815
 H          0.0633177197        2.5500768376        1.3791399018
 H         -0.8342404337        3.7366878528        0.3114597293
