20
 energy: -34.658724494445 gnorm: 0.000060920393 xtb: 6.4.1 (23d549d)
C        -3.64031011510000    0.48848190620000    0.00673352400000
C        -2.92251716200000   -0.57696349470000   -0.32539579020000
C        -1.48395664120000   -0.72438391920000   -0.17570603240000
C        -0.89671969390000   -1.95473417980000   -0.02360461120000
S         0.79413426260000   -1.88818457410000    0.17937418750000
C         0.76359960720000   -0.16105337510000    0.03678389070000
C         2.09926864620000    0.45376455810000    0.03021791620000
O         3.08181491920000   -0.19411749790000    0.28387552970000
O         2.19388164820000    1.75007553720000   -0.30390325130000
C        -0.51603871110000    0.32681878710000   -0.14120725870000
C        -0.88017024730000    1.73165248150000   -0.32065308650000
C        -0.52129153620000    2.72189665270000    0.48915012100000
H        -4.70780639430000    0.50449419350000   -0.13065501150000
H        -3.20134991060000    1.36767524650000    0.44536955530000
H        -3.41984455670000   -1.45671600230000   -0.71423235810000
H        -1.39913907770000   -2.90231109530000   -0.00460273510000
H         1.32606853390000    2.16228922060000   -0.45211214700000
H        -1.52113663130000    1.92518256940000   -1.17315898150000
H         0.06331771970000    2.55007683760000    1.37913990180000
H        -0.83424043370000    3.73668785280000    0.31145972930000
