37
 energy: -49.827384122260 gnorm: 0.000074849570 xtb: 6.4.1 (23d549d)
C         5.91679866070000    0.35798033070000    0.00561487600000
C         4.82908548890000   -0.40443957570000   -0.00848900090000
C         3.44281900110000    0.04204714720000   -0.00631877600000
C         3.08261698090000    1.39276691190000   -0.00796952030000
C         1.75909331500000    1.78804049120000   -0.00532079140000
C         0.76799659210000    0.81829189390000   -0.00086300600000
C         1.11233731170000   -0.54217209430000    0.00035192600000
C         2.43129416650000   -0.92726984880000   -0.00274991770000
C        -0.12816820880000   -1.40790982970000    0.00471714440000
C        -0.19108244440000   -2.27597351870000    1.26512028450000
C        -0.19685970650000   -2.28092893950000   -1.25193393180000
C        -1.22445529320000   -0.36493516970000    0.00485162250000
C        -2.58513288690000   -0.55344131660000    0.00695893300000
C        -3.43814880290000    0.55702162660000    0.00610124310000
C        -4.88912096050000    0.43270593330000    0.00625052930000
C        -5.59510914940000   -0.69213729900000   -0.02588352230000
C        -2.87762298560000    1.83836919730000    0.00532309460000
C        -1.51023968870000    2.03638610790000    0.00273804650000
C        -0.67762591330000    0.92842112590000    0.00206060250000
H         6.90241447090000   -0.07517905060000    0.00248331220000
H         5.87761161740000    1.43350796480000    0.02110924040000
H         4.95118911060000   -1.48137115710000   -0.02177328220000
H         3.85372651700000    2.14745191630000   -0.01213865440000
H         1.50246762080000    2.83727323490000   -0.00671691140000
H         2.70025789530000   -1.97469783810000   -0.00187570100000
H         0.64216198350000   -2.97463430680000    1.28500009620000
H        -1.11987930990000   -2.84122677650000    1.28912469410000
H        -0.14184747120000   -1.65105492660000    2.15443056250000
H         0.63614332190000   -2.97982184040000   -1.27277483690000
H        -0.15151517520000   -1.65950682000000   -2.14390152750000
H        -1.12584075750000   -2.84611687130000   -1.26954315710000
H        -2.99635215180000   -1.55109826880000    0.01082926610000
H        -5.41933877910000    1.37750167760000    0.03310124710000
H        -5.14129080160000   -1.66777146810000   -0.05702918210000
H        -6.67154788190000   -0.67653291110000   -0.02401906640000
H        -3.53699615240000    2.69536731590000    0.00560526980000
H        -1.10070223460000    3.03579271500000    0.00141714490000
