  33
        -39.14911210
 C          5.6951936836       -0.3421346405        0.1928321958
 C          5.0224404336        0.5482207602       -0.8455094216
 C          3.5054163868        0.3646252455       -0.9018137009
 C          2.7992522321        0.8280399814        0.3714845199
 C          1.2795120581        0.8932116732        0.2250533364
 C          0.6334261876       -0.4821129328        0.0210566349
 C         -0.8586149044       -0.3636618686       -0.0084685051
 C         -1.5826248050       -0.0273107574       -1.1846160941
 C         -2.9221893895        0.0702902442       -1.0008522354
 C         -3.9799227742        0.3963017607       -1.9943074595
 S         -3.3366732429       -0.2524976264        0.6551838911
 C         -1.6699858988       -0.5155758330        1.0744326724
 C         -1.2998049471       -0.8626722823        2.4753732654
 H          6.7765891892       -0.2389551522        0.1354313117
 H          5.4413966292       -1.3859945053        0.0202551822
 H          5.3830051329       -0.0728759237        1.1984395700
 H          5.4375994047        0.3176845382       -1.8298252425
 H          5.2514365843        1.5942808744       -0.6284060952
 H          3.2852848992       -0.6887084476       -1.0848422293
 H          3.1163880684        0.9387996302       -1.7468442182
 H          3.1644175679        1.8253396271        0.6307577100
 H          3.0470890870        0.1580919346        1.1968147630
 H          1.0199981986        1.5381798901       -0.6176725747
 H          0.8566351725        1.3451780703        1.1258070800
 H          0.9390933740       -1.1470191811        0.8311623492
 H          0.9737160239       -0.9102084610       -0.9230182255
 H         -1.1068655727        0.1315490744       -2.1370269127
 H         -3.5306958713        0.5699941224       -2.9694252359
 H         -4.5281328194        1.2896549359       -1.6954020037
 H         -4.6958820077       -0.4213371302       -2.0776942182
 H         -2.1935157376       -0.9777081890        3.0833253149
 H         -0.6792000618       -0.0821764827        2.9167051289
 H         -0.7376786889       -1.7966293703        2.5039425612
