26
 energy: -36.026474370278 gnorm: 0.000050207375 xtb: 6.4.1 (23d549d)
C         3.62886188750000    0.52376944080000    0.71199782530000
C         2.80813163490000    1.09866548360000   -0.15574734420000
C         1.35512325340000    0.91656540270000   -0.19615576680000
C         0.56513138400000    2.04218401770000   -0.28032314930000
C        -0.82521022760000    1.96028092580000   -0.23928119870000
C        -1.46989609400000    0.74854003000000   -0.11787448790000
C        -2.93147742800000    0.70493174190000   -0.09247825350000
C        -3.69497996340000    1.60467179750000    0.51282018600000
C        -0.69001210430000   -0.44215148630000   -0.06316475890000
C        -1.28197864600000   -1.71655667790000    0.07441570090000
C        -0.52748522650000   -2.85581861330000    0.08120183050000
C         0.86307498870000   -2.77778079350000   -0.06824574240000
C         1.47305208700000   -1.55927630010000   -0.16814654120000
C         0.72950294760000   -0.36003723560000   -0.12905776940000
H         4.68524606730000    0.73452849760000    0.71484450460000
H         3.27488266610000   -0.15910380750000    1.46649498820000
H         3.19806914770000    1.82564891640000   -0.85892962830000
H         1.03325720400000    3.01380361100000   -0.35692801530000
H        -1.40782504010000    2.86627008650000   -0.31900708610000
H        -3.39761446770000   -0.11593720220000   -0.62162078070000
H        -3.27572658200000    2.42299259740000    1.07438793860000
H        -4.76982429230000    1.54642462790000    0.48579213210000
H        -2.35339412240000   -1.79063599470000    0.17944452490000
H        -1.00047291340000   -3.82144629040000    0.18623823560000
H         1.44862630220000   -3.68493873320000   -0.10372080380000
H         2.54286697060000   -1.50277216320000   -0.29733426710000
