  26
        -36.02772809
 C          3.6335315114        1.6749233893       -0.3933691619
 C          2.8768863206        0.7645964008        0.2046987552
 C          1.4170636433        0.7259246382        0.1310051604
 C          0.6980304757        1.9010554664        0.1422076417
 C         -0.6956875851        1.9019014169        0.1424335193
 C         -1.4160209361        0.7275988227        0.1317236813
 C         -2.8758381562        0.7679968895        0.2058048279
 C         -3.6314315242        1.6772294188       -0.3952162502
 C         -0.7115915663       -0.5096852437        0.0777926308
 C         -1.3860274738       -1.7455930536       -0.0190283077
 C         -0.7019997948       -2.9263449605       -0.0968581618
 C          0.6980729123       -2.9272352697       -0.0975442695
 C          1.3837618919       -1.7473952370       -0.0203015872
 C          0.7111183576       -0.5105629044        0.0772406932
 H          4.7053854902        1.6769136626       -0.2909556189
 H          3.2133610823        2.4410584758       -1.0235727817
 H          3.3462385751       -0.0032210118        0.8059991834
 H          1.2230822276        2.8436133460        0.1935678855
 H         -1.2196904330        2.8450527696        0.1937693443
 H         -3.3457743604        0.0026354018        0.8098242115
 H         -3.2102049342        2.4407280549       -1.0279610533
 H         -4.7032858570        1.6809214003       -0.2928180080
 H         -2.4646818771       -1.7552724345       -0.0513638482
 H         -1.2371362216       -3.8619303343       -0.1704479454
 H          1.2319186249       -3.8635014712       -0.1718373710
 H          2.4623597989       -1.7586714307       -0.0537421870
