  35
        -51.28584392
 C         -4.5504498626        0.9875156855       -1.3887306401
 C         -3.6066440697        0.2183178989       -0.5152810464
 C         -2.2365629586        0.4033522362       -0.6101278932
 C         -1.3640607823       -0.3086767017        0.2074288591
 N          0.0192085420       -0.1008445071        0.1028857069
 C          0.9753182745       -1.0850046523       -0.0459798298
 C          2.2551164084       -0.4874239442       -0.1153786349
 C          3.3835927035       -1.2794292228       -0.2821646993
 C          3.2230221678       -2.6464566668       -0.3858042068
 C          1.9560074600       -3.2243024964       -0.3399311211
 C          0.8185434619       -2.4577772042       -0.1747320901
 C          0.6559982461        1.1232671945        0.1340268278
 C          2.0506782573        0.9286803375        0.0041708753
 C          2.9092412374        2.0200228164        0.0235016590
 C          2.3720253902        3.2818956982        0.1796952889
 C          0.9986894682        3.4619042952        0.3307841583
 C          0.1243780770        2.3923166997        0.3148830050
 C         -1.8677586245       -1.2230465209        1.1258439510
 C         -3.2342773234       -1.4182925043        1.2135664437
 C         -4.0975237355       -0.7030511316        0.4042810850
 H         -4.0100127638        1.6451105274       -2.0646074574
 H         -5.2222519888        1.5906788736       -0.7789888451
 H         -5.1612326450        0.3060268220       -1.9792988307
 H         -1.8323614501        1.0966271287       -1.3335725948
 H          4.3638700820       -0.8297895763       -0.3332456558
 H          4.0877495817       -3.2807197406       -0.5133270613
 H          1.8605234302       -4.2956733958       -0.4392391947
 H         -0.1602932036       -2.9130556483       -0.1577563246
 H          3.9748400926        1.8785754681       -0.0775359625
 H          3.0219377300        4.1442711145        0.1950207108
 H          0.6089816577        4.4600969049        0.4671808805
 H         -0.9364053454        2.5403219668        0.4510205190
 H         -1.1912493243       -1.7619978113        1.7716233199
 H         -3.6277006897       -2.1283199408        1.9260394447
 H         -5.1637078963       -0.8578129497        0.4829250748
