  24
        -38.03617689
 C          3.4680297146        1.7550944089        0.4025119034
 C          2.3306682405        1.7465966225       -0.2792960351
 C          1.2786096556        0.7497973899       -0.1697076925
 C         -0.0856643208        1.0798484919       -0.2417395852
 C         -0.8140310954       -0.0698675479        0.0032328264
 C         -2.2395578315       -0.3374965243        0.0659891406
 O         -2.7038558528       -1.4334727482        0.3024551991
 O         -2.9736740598        0.7625547757       -0.1719725998
 C         -4.3859593706        0.6229469909       -0.1333989401
 N          0.0775133670       -1.0803395794        0.2117790437
 C          1.3510368394       -0.6260239595        0.0992928490
 C          2.4402622271       -1.5703157962        0.1864973040
 C          3.6584920082       -1.4216552809       -0.3233858621
 H          4.1806565820        2.5552726854        0.2978461371
 H          3.7231131651        0.9701201404        1.0938976559
 H          2.0895149898        2.5773747755       -0.9316140779
 H         -0.4954581612        2.0519443555       -0.4292377336
 H         -4.7904517445        1.0423708945       -1.0542454533
 H         -4.7707235729        1.1747986416        0.7256400052
 H         -4.6531403313       -0.4321849687       -0.0464859728
 H         -0.2038046123       -2.0337573720        0.3822207247
 H          2.1795728937       -2.5010776495        0.6787233756
 H          3.9495604787       -0.5304330651       -0.8502255100
 H          4.3985738003       -2.1976135953       -0.2332516503
