21
 energy: -30.957885860677 gnorm: 0.000065070988 xtb: 6.4.1 (23d549d)
C         4.02956239980000   -0.37846623770000   -0.01316617980000
C         3.17898758670000    0.63955824400000   -0.06722584510000
C         1.72399372400000    0.55726959590000   -0.03511057650000
C         0.98354615100000    1.73392756440000    0.11832010460000
C        -0.39231404550000    1.69923666360000    0.14681468620000
C        -1.07504134930000    0.48535208970000    0.03218357340000
C        -2.48520521420000    0.55129595950000    0.01102310560000
N        -3.62321280940000    0.69835749190000   -0.02000523840000
C        -0.35618502110000   -0.71499995360000   -0.11327224260000
C        -0.99026549260000   -2.02567203530000   -0.22180196820000
C        -2.16080454220000   -2.37470463990000    0.29534045080000
C         1.03227254280000   -0.64480387260000   -0.16048791090000
H         5.09367534880000   -0.21868648120000   -0.03775354550000
H         3.71041443590000   -1.40360602260000    0.06565774640000
H         3.56984280070000    1.64817284690000   -0.12461718570000
H         1.49741051700000    2.67960411790000    0.21117998290000
H        -0.96152673020000    2.61173196340000    0.25108381020000
H        -0.39497728350000   -2.76797564380000   -0.74038670150000
H        -2.77546230120000   -1.69161656560000    0.85519751030000
H        -2.54372953460000   -3.37447527230000    0.18129317810000
H         1.58331888460000   -1.56332787290000   -0.29566391100000
