  20
        -30.66694906
 C         -3.5113872367        1.0521567893       -0.1349290306
 C         -2.9006857456       -0.1093985548        0.0637621711
 C         -1.4625076090       -0.3552971491        0.0403876898
 C         -1.0059096041       -1.6752381269        0.0705284189
 C          0.3454312073       -1.9561010486        0.0355215146
 C          1.2473381414       -0.9120879166       -0.0209352910
 F          2.5661519755       -1.2088890113       -0.0512883703
 C          0.8453501038        0.4262170106       -0.0353404190
 C          1.8508330684        1.4824003841       -0.0852486447
 C          1.6414056350        2.7720334009        0.1459911542
 C         -0.5245562648        0.6723512500       -0.0088514070
 H         -4.5843098870        1.1316102354       -0.1018895764
 H         -2.9795558296        1.9641774425       -0.3450278618
 H         -3.5015181796       -0.9908839978        0.2519166084
 H         -1.7176833271       -2.4864029114        0.1130310411
 H          0.7102892623       -2.9712665131        0.0518420989
 H          2.8518451382        1.1420182983       -0.3163243890
 H          0.6754403582        3.1694713906        0.4073800030
 H          2.4455662533        3.4851245728        0.0914033899
 H         -0.8633642613        1.6948131843       -0.0303119135
  20
        -30.66601671
 C         -3.7350450799        0.8126605892       -0.0138395536
 C         -3.0141402154       -0.3018165851       -0.0327021146
 C         -1.5593210967       -0.4060056633       -0.0154332431
 C         -0.9749072966       -1.6743568133       -0.0159143853
 C          0.3977125427       -1.8135216618        0.0041317606
 C          1.2018539932       -0.6893683997        0.0201507121
 F          2.5368409537       -0.8937934037        0.0463363150
 C          0.6716638034        0.6037415068        0.0173447929
 C          1.4526152229        1.8358911342        0.0321019983
 C          2.7709427250        1.9669344524       -0.0579065602
 C         -0.7198285783        0.7037245207        0.0028732256
 H         -4.8108547782        0.7810034762       -0.0288721961
 H         -3.2956612244        1.7947618374        0.0173565542
 H         -3.5277933522       -1.2551314905       -0.0626329190
 H         -1.6008731415       -2.5542726602       -0.0293764715
 H          0.8626021381       -2.7872959934        0.0082274459
 H          0.8452725627        2.7294127301        0.1186934916
 H          3.4443328513        1.1352198834       -0.1548200459
 H          3.2265692905        2.9428609939       -0.0388070189
 H         -1.1520063166        1.6926861142        0.0022141839
