  24
        -42.78206939
 C          1.6344989858       -2.3712454111       -0.3688458382
 C          0.8194436668       -1.1260183654       -0.1637120619
 C         -0.5654623339       -1.2214094097       -0.1388540264
 C         -1.3852701252       -0.1049220146       -0.0043589186
 C         -2.8696192562       -0.2886184675       -0.0111437793
 O         -3.6396876196        0.4481053117       -0.5578604699
 O         -3.3161289828       -1.3759578527        0.6498971236
 C         -0.8193190531        1.1747528045        0.0774019199
 C         -1.6587301537        2.4040707168        0.1808194392
 C          0.5637445946        1.2672736989        0.0639302326
 C          1.3834151239        0.1467556349       -0.0315739517
 C          2.8574165339        0.4057619392       -0.0206843571
 O          3.3659668918        1.3072537165       -0.6228609115
 O          3.5982428815       -0.4132303471        0.7515293354
 H          1.0952738579       -3.0607112315       -1.0152973074
 H          1.8100060023       -2.8866403989        0.5780677020
 H          2.5932441414       -2.1533677159       -0.8328121625
 H         -1.0104747240       -2.1995847267       -0.2739934109
 H         -2.6031582576       -1.8707538307        1.0749958648
 H         -2.3693105606        2.3226966933        1.0013000097
 H         -2.2397861411        2.5314463010       -0.7305245843
 H         -1.0356683121        3.2811292413        0.3322195507
 H          1.0384759883        2.2353012031        0.1244775350
 H          3.0634331379       -1.0755126341        1.2076790332
