  24
        -38.03503717
 C          3.6342613361        1.5830796572       -0.3422099065
 C          2.5346980469        1.6427472594        0.3965062807
 C          1.3614651476        0.7979128009        0.2479352366
 C          0.0540366393        1.2820338206        0.4239297165
 C         -0.8255639936        0.2613691606        0.1093757270
 C         -2.2759468008        0.2543117791        0.1228678942
 O         -2.9800072441        1.1847484833        0.4322565643
 O         -2.7560741473       -0.9555426923       -0.2687723350
 C         -4.1661451773       -1.1099369917       -0.3034777963
 N         -0.0787026483       -0.8247052222       -0.2427995598
 C          1.2470632498       -0.5410233019       -0.1545642277
 C          2.2023125789       -1.5983230778       -0.3886253897
 C          3.4506543910       -1.6511609453        0.0642977588
 H          4.4457756092        2.2760122319       -0.1997664695
 H          3.7591023044        0.8484044806       -1.1195108001
 H          2.4274220656        2.4250949710        1.1380479271
 H         -0.2249713748        2.2716209724        0.7254462283
 H         -4.4338063281       -1.5341370830       -1.2708922214
 H         -4.6466902865       -0.1391659293       -0.1673128841
 H         -4.4693752483       -1.7870537593        0.4968873336
 H         -0.4726238414       -1.7188801782       -0.4878793629
 H          1.8049591857       -2.4374759513       -0.9498646117
 H          3.8749354387       -0.8584330006        0.6542082048
 H          4.0815318209       -2.4990868039       -0.1381339497
