26
 energy: -49.806102292542 gnorm: 0.000107810703 xtb: 6.4.1 (23d549d)
C         3.24775951750000   -2.98571493070000   -0.43795466980000
C         3.20222682610000   -1.79104393370000    0.13603875350000
C         2.05441967470000   -0.88400259370000    0.09070371730000
C         0.76455075040000   -1.39630288810000    0.07728668580000
C        -0.32796952470000   -0.54765347060000    0.07768268910000
O        -1.58876188740000   -1.19662203980000    0.06779371090000
C        -2.69071383700000   -0.49387711780000   -0.00296813110000
F        -2.91692968750000    0.31087569840000    1.05529228470000
F        -2.77741473690000    0.31198205630000   -1.08081228410000
F        -3.73129794000000   -1.32220496400000   -0.06945754460000
C        -0.16131888510000    0.82097534130000    0.11477751770000
C         1.12147827720000    1.36384075220000    0.12325001850000
C         1.28788082100000    2.81605323300000    0.19787737410000
C         0.47188752870000    3.70199015380000   -0.35748362840000
C         2.24255385540000    0.51390188070000    0.08559741380000
N         3.51391442980000    1.04221647750000    0.05947190870000
H         4.11232956500000   -3.62111369460000   -0.35131760360000
H         2.43052193520000   -3.36836311360000   -1.02528118290000
H         4.05665527040000   -1.44038630830000    0.70193454050000
H         0.59786163530000   -2.46002485940000    0.09210156150000
H        -1.00014333890000    1.49539659210000    0.16139397250000
H         2.14031790980000    3.16294363040000    0.76918815790000
H        -0.37649250930000    3.40571694480000   -0.95089091620000
H         0.63125653740000    4.76102704520000   -0.24920285970000
H         3.59681212070000    1.99833500680000   -0.24137184190000
H         4.24605820830000    0.43535674500000   -0.26788756840000
