  38
        -52.54561716
 C          5.8987227502       -0.6443477739        0.6722125256
 C          4.7989844770       -1.3817461659        0.5722968996
 C          3.4480386104       -0.9093062858        0.3001150449
 C          2.4063660959       -1.8332239387        0.2390824376
 C          1.1060514030       -1.4355296882       -0.0070018144
 C          0.8048887612       -0.0940898742       -0.2049340464
 O         -0.4473214162        0.3809920174       -0.4548210289
 C         -1.5291503490       -0.5206751220       -0.4845125089
 C         -2.7938161355        0.3119153264       -0.7709679006
 C         -3.1923156478        1.1761805075        0.4321445669
 C         -3.8527708384        0.3402403500        1.5266879005
 C         -5.0005093354       -0.4596256575        0.9164738312
 C         -4.4681112192       -1.2910543807       -0.2489488338
 O         -3.8579716156       -0.4887462498       -1.2395902193
 C          1.8420075870        0.8634564710       -0.1603326570
 C          1.5136236053        2.2696250892       -0.3697612523
 C          2.3695565870        3.2366908679       -0.6754162746
 C          3.1353821229        0.4333879437        0.0970436175
 H          6.8556507202       -1.0929108291        0.8770076479
 H          5.8971318219        0.4258066032        0.5572235574
 H          4.8781454900       -2.4548709086        0.7012450773
 H          2.6142895851       -2.8830418569        0.3900686617
 H          0.3306062030       -2.1846933325       -0.0462244054
 H         -1.6089511295       -1.0495658654        0.4735663407
 H         -1.4051089389       -1.2568660759       -1.2905894038
 H         -2.5509510226        0.9641373371       -1.6183613453
 H         -3.8997445216        1.9343857640        0.0907804541
 H         -2.3014546483        1.6792601651        0.8085954026
 H         -4.2227374986        0.9940966129        2.3184073841
 H         -3.1272476364       -0.3429758664        1.9738805829
 H         -5.7642462528        0.2252946036        0.5434859674
 H         -5.4555289771       -1.1186183005        1.6568608780
 H         -5.2814947621       -1.8046766838       -0.7666511911
 H         -3.7615809646       -2.0468806706        0.1241406176
 H          0.4606803304        2.4997050392       -0.2817251481
 H          3.4231415629        3.0615477912       -0.8126984007
 H          2.0394752057        4.2520051308       -0.8134451417
 H          3.9180911325        1.1717258794        0.1538301192
