26
 energy: -49.804751975681 gnorm: 0.000064075583 xtb: 6.4.1 (23d549d)
C         2.91008802800000   -2.80019332110000    0.43127483830000
C         2.77833691560000   -1.67922571300000   -0.26405965670000
C         1.75014115340000   -0.66576719240000   -0.02352223060000
C         0.48037257170000   -1.06821014180000    0.37299080910000
C        -0.51683062150000   -0.13094657500000    0.55528887160000
O        -1.81365597500000   -0.55989876620000    0.96541459480000
C        -2.64387265410000   -0.81762763780000   -0.01480249680000
F        -2.23042663340000   -1.79500130460000   -0.84846772310000
F        -3.81789758880000   -1.20751427450000    0.47402253510000
F        -2.89407666400000    0.23578840520000   -0.82079136990000
C        -0.27760198350000    1.21378201760000    0.35421687750000
C         0.99313070410000    1.65166154460000   -0.00155972260000
C         1.18700524680000    3.09529430530000   -0.15563098200000
C         2.24569649920000    3.79454211090000    0.23442233710000
C         2.01999169920000    0.70717947240000   -0.21426690780000
N         3.28027042610000    1.12540798690000   -0.55542647870000
H         3.66954021240000   -3.52545991470000    0.19545803000000
H         2.27655955800000   -3.02676114190000    1.27162022490000
H         3.46108816930000   -1.49038780130000   -1.08504340880000
H         0.26304736610000   -2.11556210360000    0.50594338720000
H        -1.07363918300000    1.92849366150000    0.49444392990000
H         0.34051318210000    3.61549676780000   -0.58786966570000
H         3.08260901120000    3.34324367790000    0.74001718800000
H         2.28606424680000    4.86296203170000    0.10445568030000
H         3.34501319520000    2.04319489340000   -0.96745806540000
H         3.90419073570000    0.43285215540000   -0.93450876590000
