  23
        -38.06072389
 C         -4.0092458142        0.8348422474        0.6683271125
 C         -2.9813085582        0.8518191713       -0.1679563438
 C         -1.8985482582       -0.1350588235       -0.1593258245
 C         -2.2039315658       -1.4675466412        0.1067959823
 C         -1.2178485431       -2.4347161160        0.1183082263
 C          0.0935582639       -2.0701842560       -0.1078216242
 C          0.4281368983       -0.7377595101       -0.3458771777
 C          1.8583911323       -0.4466346358       -0.5150975380
 C          2.5379718039        0.4810732942        0.1336388809
 F          2.0631636579        1.3390149017        1.0293283334
 F          3.8477048597        0.6843723603       -0.0126008294
 C         -0.5695393209        0.2397880426       -0.4130910851
 C         -0.2391288203        1.6609358197       -0.7555635299
 H         -4.7884281156        1.5763183666        0.6215787067
 H         -4.1023339817        0.0945992830        1.4454550047
 H         -2.9163844359        1.6390583006       -0.9067450213
 H         -3.2327376733       -1.7454385356        0.2785265920
 H         -1.4697868270       -3.4676870337        0.3055211713
 H          0.8768781802       -2.8134516563       -0.0838793547
 H          2.4263211093       -1.0963979553       -1.1647153919
 H          0.7461786026        1.7379850768       -1.2071937850
 H         -0.2575857534        2.2829142409        0.1387682678
 H         -0.9629571383        2.0655736584       -1.4596869253
