23
 energy: -38.060723887648 gnorm: 0.000050284478 xtb: 6.5.0 (unknown)
C           -4.00924581420000        0.83484224740000        0.66832711250000
C           -2.98130855820000        0.85181917130000       -0.16795634380000
C           -1.89854825820000       -0.13505882350000       -0.15932582450000
C           -2.20393156580000       -1.46754664120000        0.10679598230000
C           -1.21784854310000       -2.43471611600000        0.11830822630000
C            0.09355826390000       -2.07018425600000       -0.10782162420000
C            0.42813689830000       -0.73775951010000       -0.34587717770000
C            1.85839113230000       -0.44663463580000       -0.51509753800000
C            2.53797180390000        0.48107329420000        0.13363888090000
F            2.06316365790000        1.33901490170000        1.02932833340000
F            3.84770485970000        0.68437236030000       -0.01260082940000
C           -0.56953932090000        0.23978804260000       -0.41309108510000
C           -0.23912882030000        1.66093581970000       -0.75556352990000
H           -4.78842811560000        1.57631836660000        0.62157870670000
H           -4.10233398170000        0.09459928300000        1.44545500470000
H           -2.91638443590000        1.63905830060000       -0.90674502130000
H           -3.23273767330000       -1.74543853560000        0.27852659200000
H           -1.46978682700000       -3.46768703370000        0.30552117130000
H            0.87687818020000       -2.81345165630000       -0.08387935470000
H            2.42632110930000       -1.09639795530000       -1.16471539190000
H            0.74617860260000        1.73798507680000       -1.20719378500000
H           -0.25758575340000        2.28291424090000        0.13876826780000
H           -0.96295713830000        2.06557365840000       -1.45968692530000
