  36
        -55.34269287
 C         -5.5801588229       -0.0068663383       -0.0091226921
 C         -4.0823352859        0.0077927384        0.0029458711
 C         -3.3711606171        0.4934719989       -1.0884935809
 C         -1.9895875278        0.4887939402       -1.0963804485
 C         -1.2898939016        0.0011936063        0.0014197294
 N          0.1254557226       -0.0000654420        0.0012111237
 C          0.8333658743        1.2005869531        0.0295311206
 C          2.2348233773        1.1725674809        0.0192521767
 O          2.9474488403       -0.0019424029       -0.0045858053
 C          2.2331391599       -1.1755163888       -0.0232749175
 C          0.8315844328       -1.2017343970       -0.0277642249
 C          0.1943827560       -2.4340274993       -0.0948243377
 C          0.9272851298       -3.6113122737       -0.1233908338
 C          2.3060390591       -3.5757710373       -0.0941587984
 C          2.9580950043       -2.3512480636       -0.0506164478
 C          2.9613847533        2.3473301868        0.0456428818
 C          2.3110388785        3.5725816570        0.0939707958
 C          0.9324650753        3.6098181908        0.1291261649
 C          0.1979544341        2.4335203720        0.1015881077
 C         -1.9906684959       -0.4832048011        1.0993393734
 C         -3.3728580162       -0.4816979955        1.0927902400
 H         -5.9717546439        0.8621635731       -0.5331107909
 H         -5.9773332542       -0.0187870064        1.0029100424
 H         -5.9391967598       -0.8984666250       -0.5244022891
 H         -3.9070742226        0.8761942970       -1.9451206366
 H         -1.4444586789        0.8645826511       -1.9498422047
 H         -0.8832434182       -2.4725428422       -0.1308498924
 H          0.4060207760       -4.5551932446       -0.1716276921
 H          2.8808789203       -4.4882722753       -0.1129968327
 H          4.0345845495       -2.2883474445       -0.0414474233
 H          4.0377482718        2.2831091718        0.0317533566
 H          2.8870972559        4.4843327575        0.1119009933
 H          0.4126050658        4.5542587232        0.1813132112
 H         -0.8794662171        2.4732954321        0.1422758159
 H         -1.4467600218       -0.8589899519        1.9535603168
 H         -3.9086958441       -0.8604120398        1.9513162769
