  23
        -44.95296236
 C          3.1021483450        2.4508464785       -0.0274553864
 C          2.6625114991        1.1951190012       -0.0147647770
 C          1.2719900251        0.8278985111       -0.0164628500
 S          0.0450331464        2.0519203738       -0.0897892255
 C         -1.2214260183        0.8732373771       -0.0479527774
 C         -2.6031914316        1.2748040350       -0.1519889721
 C         -3.0252094330        2.5327285673       -0.0497813547
 C         -0.7044098952       -0.4120404879       -0.0024066835
 C         -1.5803200030       -1.6050252375        0.0310721788
 O         -1.3900948101       -2.5836034930       -0.6527427933
 O         -2.6312216396       -1.5569981103        0.8544794547
 C          0.7220514401       -0.4418069145       -0.0008806844
 C          1.6107742003       -1.6494992902        0.0818371995
 O          2.6623485543       -1.6063122324        0.6685210121
 O          1.2284110581       -2.7480975272       -0.5484888910
 H          4.1536239655        2.6745954686       -0.0251771255
 H          2.4276602771        3.2930008591       -0.0377130866
 H          3.3536088145        0.3657025122        0.0166365619
 H         -3.3162432180        0.4857794358       -0.3554090361
 H         -2.3420585968        3.3436254147        0.1410456521
 H         -4.0649961088        2.7850659763       -0.1537348509
 H         -2.6634631505       -0.7510830051        1.3884764407
 H          0.2923874502       -2.7514398615       -0.8569194517
