  22
        -29.87279861
 C         -3.8519749278        1.0065915112        0.0782023041
 C         -3.0019948844       -0.0134775179        0.0580779450
 C         -1.5482885630        0.0621855229        0.0062972480
 C         -0.8452787299        1.2690263063       -0.0384142469
 C          0.5301427292        1.2684804984       -0.0925696123
 C          1.2731214700        0.0879249925       -0.1022299898
 C          2.7282690158        0.1291606286       -0.1907909179
 C          3.4992700280        1.0954189099        0.2928359327
 C          0.5746409950       -1.1349046497       -0.0539633918
 N          1.2334934689       -2.3428637870        0.0440359411
 C         -0.8169029961       -1.1204655532       -0.0053375341
 H         -4.9161800451        0.8479236030        0.1188524320
 H         -3.5306624252        2.0335818146        0.0563179943
 H         -3.3981707508       -1.0221099598        0.0837288036
 H         -1.3758608620        2.2075920028       -0.0398942609
 H          1.0575077837        2.2088216959       -0.1540592611
 H          3.2027694478       -0.7006492396       -0.7039674511
 H          3.0949085018        1.9309724070        0.8381687961
 H          4.5692426943        1.0771171773        0.1743393145
 H          2.1902992015       -2.3751511724       -0.2654233272
 H          0.6906041375       -3.1608504470       -0.1799260904
 H         -1.3395659876       -2.0676337651        0.0306245900
