  17
        -24.38360677
 C         -3.1331159774        1.1508210327        0.0004399773
 C         -2.6437503332       -0.0861911192       -0.0000658902
 C         -1.2473025602       -0.4223270726       -0.0001296190
 C         -0.7003504475       -1.6817197490        0.0001613620
 C          0.7003510393       -1.6817193048        0.0001723811
 C          1.2473025019       -0.4223268498       -0.0001320902
 C          2.6437501084       -0.0861908181       -0.0000856521
 C          3.1331160451        1.1508214816        0.0004349107
 S         -0.0000002464        0.7891570184       -0.0003780425
 H         -4.1916455957        1.3408383892        0.0004296471
 H         -2.4835980716        2.0106367493        0.0006816457
 H         -3.3112102095       -0.9391284685       -0.0003720476
 H         -1.2976875246       -2.5768040133        0.0004172339
 H          1.2976885319       -2.5768033015        0.0004318528
 H          3.3112103203       -0.9391299577       -0.0003485584
 H          2.4835993629        2.0106346989        0.0007752636
 H          4.1916465390        1.3408363048        0.0005315825
