  27
        -33.29684565
 C          2.9542257167       -1.2617529876       -0.8397520918
 C          1.6994772035       -0.5905240299       -0.4017968461
 C          0.3987050749       -0.9226158051       -0.7084754037
 N         -0.4041166211       -0.0252033751       -0.0973225640
 C         -1.8575286947       -0.0004970895       -0.0409306554
 C         -2.3058553856       -0.8316416657        1.1675132002
 C         -2.3000732529        1.4534896148        0.1266032405
 C         -2.4414150752       -0.5779726835       -1.3311933278
 N          0.3085010420        0.8561485607        0.6026874897
 C          1.5806231739        0.5425981785        0.4303900461
 C          2.6778371784        1.3267365444        1.0567490284
 H          2.7272971487       -2.1154748067       -1.4740923070
 H          3.5232905462       -1.6081664473        0.0231611636
 H          3.5842294088       -0.5687932626       -1.3977761458
 H          0.0198768874       -1.7204748480       -1.3136330384
 H         -1.8883080104       -0.4105936781        2.0786693679
 H         -1.9603585970       -1.8590043599        1.0709461087
 H         -3.3898783834       -0.8332819235        1.2441788848
 H         -1.8165214285        1.8846773427        0.9975325697
 H         -3.3784601090        1.5043503779        0.2488223645
 H         -2.0144637218        2.0358783465       -0.7457731187
 H         -2.2660913192       -1.6484995827       -1.4021906200
 H         -2.0025788800       -0.0906407502       -2.1990287833
 H         -3.5153002100       -0.4110471015       -1.3477545554
 H          2.2569867291        2.1453905177        1.6331418460
 H          3.3402490811        1.7305096627        0.2914277919
 H          3.2705968952        0.6920711305        1.7150975413
