  26
        -41.83250303
 C          3.8523040091        2.5129712629       -0.0181147337
 C          3.5279547816        1.2262073845        0.0650321853
 C          2.1838809379        0.7131530061        0.0036978628
 C          0.9627682782        1.3210885142       -0.1431086279
 C         -0.0070114863        0.2887799395       -0.1323289538
 C         -1.4443727514        0.5416005179       -0.2646190468
 O         -1.9194202679        1.6465727332       -0.3723494886
 O         -2.1789521537       -0.5839655017       -0.2659300823
 C         -3.5931650420       -0.4239774687       -0.3746889881
 C         -4.2260624467       -0.1201825564        0.9758586624
 C          0.6978024159       -0.9002442145        0.0239515071
 C          0.2480708327       -2.2639211171        0.1072722796
 C          1.0690580272       -3.3022881012        0.2538017956
 O          2.0119509337       -0.6285264134        0.1042128335
 H          4.8764881866        2.8364987090        0.0341821960
 H          3.1070981872        3.2791378753       -0.1404996662
 H          4.2902984769        0.4687647111        0.1880474868
 H          0.7550160044        2.3650574276       -0.2479223512
 H         -3.9551169544       -1.3731573082       -0.7759940573
 H         -3.8049901477        0.3854236844       -1.0811330086
 H         -3.9756510606       -0.8981800630        1.6933622936
 H         -5.3057442689       -0.0681125207        0.8687130466
 H         -3.8622698140        0.8344339971        1.3477539333
 H         -0.8206755122       -2.3927547963        0.0407365287
 H          2.1358358336       -3.1701956700        0.3181949543
 H          0.6968057982       -4.3095826873        0.3125859834
