  24
        -42.12145253
 C         -2.3348017870        3.3002585759        0.1657731459
 C         -2.8176336261        2.0848408594       -0.0619046186
 C         -2.0516132075        0.8455049465       -0.1095756510
 C         -2.7246615918       -0.3784099011       -0.0971363471
 C         -2.0274944146       -1.5655815706       -0.1047062667
 C         -0.6348484848       -1.5836298964       -0.1495643736
 O         -0.0585288758       -2.8222370613       -0.1450985139
 C          1.1052498055       -3.0539206189        0.6254698685
 C          0.0610509909       -0.3649065277       -0.2304627531
 C          1.5079753742       -0.3355363299       -0.4432010597
 C          2.3430103258        0.6002656517       -0.0238017656
 F          2.0571758610        1.6575843606        0.7292222476
 F          3.6493718364        0.5947006109       -0.2884746746
 C         -0.6635426350        0.8230966634       -0.1910019231
 H         -2.9789745151        4.1622760793        0.1899212033
 H         -1.2901893795        3.4870318803        0.3463973116
 H         -3.8832509811        1.9600147010       -0.2107995539
 H         -3.8040950592       -0.3940400798       -0.0603758092
 H         -2.5422775384       -2.5132211744       -0.0738646548
 H          0.9276514986       -3.9647347751        1.2025799780
 H          1.3110377517       -2.2318792171        1.3126140974
 H          1.9715238226       -3.2165478796       -0.0211989936
 H          1.9426582192       -1.1305790629       -1.0293510855
 H         -0.1276699588        1.7545824036       -0.2707130143
