  27
        -32.82040310
 C         -2.2967218563       -0.7182648750       -1.4457699206
 C         -3.1398738549       -0.2327891216       -0.2725158111
 C         -2.5353740289       -0.5524498151        1.0963740268
 C         -1.4071178217        0.3935141039        1.5282931890
 C         -0.1357320062        0.2083006658        0.7592029605
 C          0.6195467939       -0.9960019939        0.8048195590
 C          1.7416898916       -0.9749857476        0.0451924626
 C          2.7564367662       -2.0445393481       -0.1501572072
 S          1.9095531554        0.5573385665       -0.7561241676
 C          0.4387563793        1.1496006475       -0.0401767907
 C         -0.0309275115        2.5296687179       -0.3523543982
 H         -2.8070275292       -0.5141028872       -2.3849183624
 H         -2.1299634172       -1.7910594879       -1.3737475065
 H         -1.3304021259       -0.2246180911       -1.4668381463
 H         -4.1217934007       -0.7098795128       -0.3336606642
 H         -3.2964873705        0.8454000283       -0.3546835521
 H         -2.1696638033       -1.5809233825        1.0954890352
 H         -3.3274714626       -0.4837795618        1.8467383241
 H         -1.1942434537        0.2068135109        2.5856830498
 H         -1.7486198435        1.4254029634        1.4346250816
 H          0.3273868620       -1.8479905860        1.3939328476
 H          2.4899254912       -2.9193235366        0.4385646150
 H          3.7439962926       -1.7009773018        0.1574307017
 H          2.8158963659       -2.3322897931       -1.1998613577
 H          0.6558802602        3.0104352168       -1.0443926039
 H         -0.0864869622        3.1336232374        0.5540135959
 H         -1.0212282082        2.5074820708       -0.8079028066
