  32
        -39.10164866
 C         -2.8272897567        2.3079357693        0.6232093715
 C         -2.5253963231        1.2859834117       -0.1663652314
 C         -1.2524475878        0.5670584625       -0.1483249251
 C         -0.0740842352        1.2526085887        0.1342943489
 C          1.1648867326        0.6340561595        0.1772892163
 C          2.3918134448        1.4793674082        0.3839519752
 C          2.8916364973        2.0080949996       -0.9622224285
 C          1.2326721988       -0.7372754805       -0.0816225563
 C          2.4836929314       -1.5117294424       -0.0479533190
 C          3.2642215987       -1.6425069136        1.0120801900
 C          0.0611302821       -1.4199013913       -0.3963767395
 C         -1.1777109275       -0.8032298803       -0.4349089307
 C         -2.4035991791       -1.6259558434       -0.7178245203
 C         -3.2081674434       -1.8716861831        0.5595171764
 H         -3.7788411559        2.8085932376        0.5624212076
 H         -2.1462812782        2.6717512933        1.3745166618
 H         -3.2607607129        0.9365990528       -0.8797216744
 H         -0.1264338524        2.3178292812        0.3095453901
 H          3.1865624588        0.9021702932        0.8535985684
 H          2.1485079900        2.3225262319        1.0339036141
 H          3.1647072736        1.1792760442       -1.6118289908
 H          3.7647461593        2.6417345795       -0.8230724130
 H          2.1147245519        2.5883657280       -1.4555833130
 H          2.7183976693       -2.0476946111       -0.9607297243
 H          3.0357840500       -1.1610193555        1.9491063187
 H          4.1532959810       -2.2504617664        0.9923792269
 H          0.1255031103       -2.4798363480       -0.6046644959
 H         -2.1021845734       -2.5865785777       -1.1409408992
 H         -3.0373853764       -1.1249248841       -1.4532500887
 H         -2.5970538331       -2.3936675004        1.2927343591
 H         -4.0866124398       -2.4768208583        0.3458158642
 H         -3.5311990264       -0.9280948375        0.9934212380
