  22
        -32.98959472
 C          4.6138959978        0.2449612113        0.0004241962
 C          3.1834058016       -0.1586948671       -0.0004146010
 C          2.6548973639       -1.4124145262       -0.0025708103
 C          1.2466807230       -1.4309970728       -0.0022808437
 C          0.6903150528       -0.1808886405        0.0000146004
 C         -0.6902951002        0.1808963945        0.0000015576
 C         -1.2466641281        1.4309940727       -0.0022278757
 C         -2.6548907585        1.4124132026       -0.0025186740
 C         -3.1833976711        0.1586982239       -0.0004610106
 C         -4.6138967468       -0.2449332042        0.0003312267
 S         -1.9310026098       -1.0449620667        0.0020593338
 S          1.9309847028        1.0449471691        0.0019721480
 H          5.2481881524       -0.6382781320       -0.0093583749
 H          4.8470735815        0.8359413489        0.8860807852
 H          4.8433246239        0.8531300492       -0.8744187937
 H          3.2578799534       -2.3034450654       -0.0046396586
 H          0.6555850987       -2.3297880796       -0.0039960655
 H         -0.6555764288        2.3297871838       -0.0038095694
 H         -3.2578787628        2.3034400864       -0.0044567144
 H         -5.2481902587        0.6383035556       -0.0094319873
 H         -4.8471246196       -0.8359531269        0.8859518075
 H         -4.8433139529       -0.8530785827       -0.8745375346
