  22
        -34.10028240
 C          3.6593099909       -0.5338442996       -0.2652661753
 C          2.6935754325        0.1980988682        0.2729978492
 C          1.2623357594       -0.0595379107        0.1123271496
 C          0.8098457488       -1.3738892628        0.0407131285
 C         -0.5401155463       -1.6281905956       -0.0689178889
 F         -0.9670556694       -2.9139942787       -0.1265307764
 C         -1.4691120473       -0.6099024003       -0.1230423310
 C         -1.0441643324        0.7122470201       -0.0699440334
 C         -2.0213022826        1.7960174257       -0.1839850146
 C         -3.2586270801        1.7535007138        0.2915595459
 C          0.3312508461        0.9967087146        0.0589777169
 N          0.7580527902        2.3077347177        0.0605436265
 H          4.6988444485       -0.3142210183       -0.0923973679
 H          3.4484137426       -1.3687938426       -0.9113062716
 H          2.9659374246        1.0431725641        0.8961269431
 H          1.5065987135       -2.1942538877        0.0978494118
 H         -2.5153198044       -0.8441934531       -0.2336589850
 H         -1.6867183976        2.6777113879       -0.7168694242
 H         -3.6297870248        0.9065172397        0.8435222322
 H         -3.9446820092        2.5720969296        0.1565016109
 H          0.0997934766        2.9961925064        0.3834731961
 H          1.7100413503        2.4722131472        0.3408294018
