34
 energy: -52.774503262230 gnorm: 0.000062943304 xtb: 6.4.1 (23d549d)
C        -4.08446266200000    1.64549119510000    1.67306544970000
C        -3.49232585190000    1.87866169720000    0.50782568750000
C        -2.41909436580000    1.09686097810000   -0.08983449650000
C        -1.88940784350000   -0.06066056870000    0.47442051320000
C        -0.87550667960000   -0.80907331190000   -0.11152472080000
C        -0.49661448920000   -2.06944815530000    0.54635053540000
C        -0.18730798160000   -2.16332300210000    1.82931763680000
C        -0.31593455030000   -0.35561463120000   -1.31580604220000
O         0.71017701280000   -0.92306957560000   -2.01145217370000
C         1.72889355990000   -1.65230204450000   -1.35239762120000
C         2.31434290600000   -0.97046938700000   -0.14169105530000
C         2.34142334740000    0.41317523140000   -0.04070202190000
C         2.88099190250000    1.02164691500000    1.07920405370000
C         3.41253804200000    0.25420335910000    2.10023302600000
C         3.40542781770000   -1.12682603660000    1.99638226150000
C         2.85484649210000   -1.73552266500000    0.88406581890000
C        -0.83916080580000    0.79238276210000   -1.91072613540000
C        -1.86843275990000    1.48207580720000   -1.31435949580000
F        -2.33861233910000    2.58310220560000   -1.94191832030000
H        -4.87390951660000    2.28268340720000    2.03197422390000
H        -3.81439873680000    0.82297147840000    2.31282790690000
H        -3.81137336970000    2.72667086700000   -0.08414162740000
H        -2.30302409130000   -0.42620911150000    1.40087706930000
H        -0.53693815690000   -2.95686362900000   -0.07297882490000
H        -0.13172684740000   -1.29141059100000    2.45961069160000
H         0.04418151430000   -3.10692395070000    2.29270738650000
H         2.50515820700000   -1.75636695840000   -2.12151886750000
H         1.38978805840000   -2.65984003760000   -1.08592093500000
H         1.93869625780000    1.01818821210000   -0.83914879540000
H         2.88834281600000    2.09914230730000    1.15045953800000
H         3.83387675870000    0.72960206980000    2.97349485930000
H         3.82424692500000   -1.73152987490000    2.78718146960000
H         2.84294487550000   -2.81339667790000    0.80840569150000
H        -0.42477504970000    1.13471702800000   -2.84552326420000
