23
 energy: -42.927659415063 gnorm: 0.000037960553 xtb: 6.4.1 (23d549d)
F        -5.17334339180000    0.02384792480000   -0.03107765800000
C        -3.87425348860000    0.30418628550000    0.03701966200000
F        -3.72593891810000    1.59588475500000    0.30256865700000
C        -2.92759888000000   -0.60623519690000   -0.14177236520000
C        -1.48679728870000   -0.43082435560000   -0.09499740460000
C        -0.85981554650000    0.78951309000000    0.16353374660000
C         0.51504542530000    0.88840037550000    0.19243942260000
C         1.32148644770000   -0.22751215900000   -0.03584526820000
N         2.71403413310000   -0.12255172190000   -0.00741850520000
C         3.46151720060000    0.99919387810000    0.22833015640000
N         4.73664540540000    0.76606938890000    0.18456964800000
C         4.86109317320000   -0.56168408100000   -0.09080623660000
C         3.63086563250000   -1.12875453470000   -0.21312495110000
C         0.69907193040000   -1.44936546400000   -0.29346526190000
C        -0.67545464420000   -1.54437562680000   -0.32141057330000
H        -3.28521789100000   -1.60445628540000   -0.34948341860000
H        -1.44448713710000    1.67588340240000    0.34509840960000
H         0.95883826820000    1.84891814210000    0.39558522470000
H         3.04628536320000    1.96500600250000    0.42742483630000
H         5.82567487300000   -1.01845699620000   -0.18224949000000
H         3.35818287960000   -2.14021610810000   -0.42418680820000
H         1.28421175080000   -2.33601132180000   -0.47441038710000
H        -1.13206272530000   -2.50194052110000   -0.52331020250000
