  19
        -26.74248138
 C          1.7790320064        2.5146149026       -0.0002396936
 C          1.0351380758        1.2144447602        0.0000585199
 C          1.7101820521       -0.0002492732        0.0000347116
 C          1.0346801279       -1.2146994609        0.0002097973
 C          1.7780869770       -2.5151448925       -0.0003251131
 C         -0.3522481098       -1.2094939503        0.0003627665
 C         -1.0433867169        0.0002680012        0.0003492101
 C         -2.4572893465        0.0003317916        0.0001734705
 N         -3.6039562849        0.0002601776       -0.0005237514
 C         -0.3518085201        1.2097697757        0.0002219725
 H          2.8533795418        2.3503104637        0.0024609454
 H          1.5139077491        3.1022086553        0.8777630088
 H          1.5180102183        3.0993162316       -0.8814305214
 H          2.7913666014       -0.0004625178       -0.0000208960
 H          2.8524734591       -2.3512516118        0.0074686504
 H          1.5207542540       -3.0972076274       -0.8843695164
 H          1.5088608188       -3.1051624452        0.8747723192
 H         -0.9019658499       -2.1396148609        0.0003964315
 H         -0.9011168905        2.1401350281        0.0001607151
