  22
        -36.89387405
 C          4.0020384363        0.6955931264       -0.3019623466
 C          3.3478099515       -0.4107064562        0.0311664394
 C          1.9010438535       -0.5719157163        0.0906495138
 C          1.3572306828       -1.8451503161        0.2884519189
 C         -0.0062297071       -2.0470492554        0.3250058281
 C         -0.9036846842       -0.9888254207        0.1790548379
 C         -2.3376829320       -1.2629165670        0.1055008781
 C         -3.1608925449       -0.7180286563       -0.7783366434
 C         -0.3532831875        0.2903652028        0.0377413586
 N         -1.1838397309        1.4704533918        0.0343058230
 O         -2.1064116567        1.5143234129        0.8176382575
 O         -0.8693199491        2.3652832016       -0.7217647575
 C          1.0148719559        0.4961528676       -0.0243224506
 H          5.0776410221        0.7209572361       -0.3251658554
 H          3.5036040410        1.6107687230       -0.5709388324
 H          3.9093310837       -1.3041310509        0.2739617287
 H          2.0216371691       -2.6893521090        0.4030565035
 H         -0.3979990101       -3.0456321883        0.4496516273
 H         -2.6967538067       -2.0199728922        0.7897697382
 H         -2.8310641288        0.0044039663       -1.5073974492
 H         -4.2026843104       -0.9830544283       -0.8135338769
 H          1.3742727393        1.5071676171       -0.1373481229
