  26
        -43.34107680
 C          4.2292779608       -0.6463458381        0.0741803618
 O          2.8174737164       -0.7959996496        0.0631705763
 C          2.1116722155        0.3611634694       -0.0264518238
 O          2.6773048136        1.4276349358       -0.0860487154
 C          0.6476453271        0.2089018265       -0.0265563832
 C         -0.0603098481        1.4172020037       -0.0523241082
 C         -1.4343334511        1.4728611241       -0.0331612994
 C         -2.1990101222        2.7595597520       -0.0543782025
 C         -2.1052732676        0.2492799848        0.0092833944
 F         -3.4594559220        0.2762753081        0.0324391472
 C         -1.4710569318       -0.9752771851        0.0260036412
 C         -2.2659175842       -2.2497839548        0.0559519732
 C         -0.0589859990       -1.0107737487        0.0075764049
 N          0.5611828495       -2.2215815624       -0.0357388252
 H          4.6415867551       -1.6500154963        0.1443498456
 H          4.5399534122       -0.0417921392        0.9285367786
 H          4.5646644841       -0.1559805405       -0.8415458460
 H          0.5189724513        2.3273877095       -0.0829304019
 H         -1.5187151780        3.6050096599       -0.0943294734
 H         -2.8208160426        2.8453600615        0.8361431474
 H         -2.8593822707        2.7931539509       -0.9201700510
 H         -3.3291047807       -2.0291623528        0.0330732333
 H         -2.0580185919       -2.8171893021        0.9645220606
 H         -2.0252430549       -2.8713194047       -0.8063298190
 H          0.0341275145       -3.0343271391        0.2278780493
 H          1.5569575154       -2.2417389649        0.0960279407
