  26
        -41.83197303
 C          4.2399270929        1.8387031224       -0.1519065806
 C          2.9444873759        2.1146297879       -0.0319680513
 C          1.9040096382        1.1196110530        0.0062102818
 C          0.5470588060        1.2634973401        0.1269500204
 C         -0.0098344898       -0.0419339142        0.1110017760
 C         -1.4464073671       -0.3060818843        0.2182033304
 O         -1.9866113198       -1.3875774496        0.2195821232
 O         -2.1264298807        0.8473216370        0.3311035299
 C         -3.5447661145        0.7497652301        0.4304774268
 C         -4.1930807187        0.6007388917       -0.9390241010
 C          1.0701575703       -0.9135682115       -0.0221407643
 C          1.2533472115       -2.3395631367       -0.1082919043
 C          0.3099507583       -3.2765266082       -0.0690966955
 O          2.2087477993       -0.1961423373       -0.0833492934
 H          4.9832646342        2.6154862334       -0.1754648859
 H          4.5896098561        0.8234318424       -0.2294346473
 H          2.5920656109        3.1333717151        0.0460658432
 H         -0.0006890851        2.1781362740        0.2173911294
 H         -3.8584116286        1.6767113273        0.9156113596
 H         -3.7994691379       -0.1073915670        1.0629949455
 H         -3.9028806731        1.4262941908       -1.5847193137
 H         -5.2740302986        0.5948402811       -0.8319648981
 H         -3.8789968098       -0.3338765009       -1.3971733073
 H          2.2963447049       -2.6132599860       -0.2150086271
 H         -0.7305015966       -3.0296770079        0.0370035846
 H          0.5698947799       -4.3184605638       -0.1444903631
