24
 energy: -33.670909431076 gnorm: 0.000118890956 xtb: 6.4.1 (23d549d)
C         3.82179917910000    0.39398972750000   -0.09232856740000
C         2.67340897900000    1.04299191900000    0.05524208200000
C         1.33394951580000    0.46415441030000    0.03538378250000
C         1.10608445230000   -0.90660738170000    0.03096763150000
C        -0.18787667140000   -1.42637621620000    0.00978287820000
C        -0.35900173830000   -2.87571023130000    0.00775695460000
C        -1.50684811440000   -3.54130628240000   -0.01898512140000
C        -1.26221421880000   -0.54426593910000   -0.00758598490000
C        -1.05408832170000    0.83236683810000   -0.00002047180000
O        -2.18504339920000    1.59641852940000   -0.01626194520000
C        -2.05149541390000    2.99574985630000   -0.01260138690000
C         0.23963035950000    1.33285877020000    0.02489148160000
H         4.76481587840000    0.91280002590000   -0.06648491080000
H         3.87486876320000   -0.66950378070000   -0.24983293730000
H         2.69700714280000    2.11760611970000    0.19437628370000
H         1.94166536220000   -1.58882181430000    0.05273128050000
H         0.56875546290000   -3.43499990090000    0.03004689400000
H        -2.46458801700000   -3.05107577690000   -0.04260639020000
H        -1.52912879550000   -4.61775271510000   -0.01855819420000
H        -2.27997298780000   -0.89680903400000   -0.02407067800000
H        -3.06688841700000    3.38890847350000   -0.03093454090000
H        -1.51140095940000    3.35167342050000   -0.89635496560000
H        -1.54432204280000    3.35031164530000    0.89098763330000
H         0.42330354850000    2.39638883810000    0.03150565760000
