40
 energy: -69.086080289341 gnorm: 0.000044368683 xtb: 6.4.1 (23d549d)
C         2.76990581630000    5.22446350840000   -0.23380734580000
O         1.84510696100000    4.16555874640000   -0.23934461760000
C         2.30760887570000    2.88675863210000   -0.12511276090000
C         3.65745553680000    2.54380044810000    0.00122503100000
C         4.04386717670000    1.22060822690000    0.09325866350000
C         1.32258429570000    1.90210438900000   -0.14499445160000
C         1.71360470000000    0.58161012990000   -0.02682095450000
C         3.07872212760000    0.22656099950000    0.07639908190000
C         3.12772662720000   -1.20784798090000    0.12852751610000
C         4.16368051670000   -2.12360436010000    0.25033420000000
C         3.85571960860000   -3.46917166780000    0.29799829680000
C         2.53402692130000   -3.90264304450000    0.24340100290000
C         1.48574118870000   -3.00893079710000    0.12203969430000
C         1.79068074680000   -1.65863132230000    0.04537000850000
N         0.94466528590000   -0.56639269240000   -0.04778477640000
C        -0.44722779410000   -0.61812966880000   -0.14950163250000
C        -1.05595357140000   -1.46709081650000   -1.07242185560000
C        -2.42996785670000   -1.51862236380000   -1.16377791730000
C        -3.24028777730000   -0.72459925090000   -0.34739246080000
C        -4.68059874410000   -0.83082454620000   -0.50188151380000
C        -5.63225004290000   -0.18372069280000    0.15549386710000
F        -5.49433897330000    0.72069301050000    1.11799590600000
F        -6.93099708440000   -0.36856293030000   -0.07803273850000
C        -2.62115005010000    0.12668033870000    0.57119541270000
C        -1.24668103140000    0.17642646300000    0.67044129390000
H         2.17705844750000    6.13204808890000   -0.33785911650000
H         3.47018811820000    5.15347070950000   -1.07254976320000
H         3.33048072130000    5.26632319470000    0.70586970100000
H         4.41528066450000    3.31041322970000    0.01845846600000
H         5.08978098820000    0.96647134290000    0.17365899820000
H         0.29271703470000    2.19659201300000   -0.26393144940000
H         5.18707557000000   -1.78567517860000    0.31181592730000
H         4.64719733740000   -4.19797272700000    0.38988883280000
H         2.32121446290000   -4.95987666810000    0.30132390500000
H         0.46374891960000   -3.35607961510000    0.10241323670000
H        -0.44398161290000   -2.06898993700000   -1.72692292320000
H        -2.88916029780000   -2.17770206830000   -1.88599532910000
H        -5.03459922330000   -1.52668138160000   -1.24904562780000
H        -3.21280678720000    0.74937128320000    1.22160183880000
H        -0.78125410550000    0.82121375090000    1.39994603270000
