20
 energy: -31.920914377890 gnorm: 0.000034142476 xtb: 6.4.1 (23d549d)
C        -4.63093505700000    0.10704335710000   -0.00548961280000
C        -3.64082096480000   -0.78154603650000   -0.00210235770000
C        -2.24212242110000   -0.45664420270000    0.00071185240000
C        -1.19648237160000   -1.34536239150000    0.00165062800000
C         0.04487007430000   -0.69521816720000    0.00233925910000
S         1.69346507280000   -1.21130906620000    0.00143505970000
C         2.24211260840000    0.45661529060000    0.00052335470000
C         3.64080992840000    0.78156303950000   -0.00234159310000
C         4.63096156830000   -0.10698984660000   -0.00504196810000
C         1.19647569580000    1.34534436020000    0.00157234940000
C        -0.04487793450000    0.69520445290000    0.00238027680000
S        -1.69346249550000    1.21130085300000    0.00162880410000
H        -5.66264033380000   -0.19597051680000   -0.00795878110000
H        -4.43450199040000    1.16661785100000   -0.00590958270000
H        -3.85564374390000   -1.84273963590000   -0.00186928290000
H        -1.32341695830000   -2.41253909450000    0.00139600310000
H         3.85558271970000    1.84277101260000   -0.00269646290000
H         4.43456579580000   -1.16658386220000   -0.00493898220000
H         5.66265447970000    0.19606995490000   -0.00774131950000
H         1.32342379840000    2.41251809620000    0.00135253930000
