37
 energy: -65.076555161658 gnorm: 0.000065381452 xtb: 6.4.1 (23d549d)
F         6.85417923020000   -0.04128072510000    0.18217630350000
C         5.56362105870000    0.00783189860000   -0.13695702990000
F         5.45116139740000    0.18366859260000   -1.44702171990000
C         4.59342048010000   -0.10694336450000    0.75836052250000
C         3.15563388020000   -0.07112341210000    0.54447030920000
C         2.32347032570000   -0.21143679730000    1.65785868080000
C         0.94971910340000   -0.18637006610000    1.52657710400000
C         0.37667809280000   -0.02009868400000    0.27240396210000
N        -1.04150719140000   -0.00069866020000    0.14795780480000
C        -1.66605450970000    1.23823298320000    0.01935836450000
C        -3.05573270030000    1.38193189140000   -0.01698576170000
S        -4.16379690160000    0.01610316970000    0.19143144870000
C        -3.07267302320000   -1.35810569030000   -0.04488429080000
C        -1.68197720330000   -1.22677186390000   -0.02065812780000
C        -0.92489809300000   -2.38944971280000   -0.17492389490000
C        -1.52365095760000   -3.62605071540000   -0.33833232280000
C        -2.90057929260000   -3.73715634420000   -0.36838604790000
C        -3.66859373850000   -2.59508643630000   -0.22579883560000
C        -3.63982217180000    2.62845770780000   -0.16823353670000
C        -2.86182229000000    3.76899115170000   -0.25978910320000
C        -1.48712335700000    3.64781351380000   -0.19322177610000
C        -0.89961330720000    2.40217691810000   -0.05963699960000
C         1.19376171490000    0.11851164280000   -0.84493397500000
C         2.56737675920000    0.09437538060000   -0.71200269360000
H         4.92518494650000   -0.24437587110000    1.77745483570000
H         2.76216577250000   -0.34015281280000    2.63614568130000
H         0.31230890100000   -0.29692182400000    2.39080535540000
H         0.15204654150000   -2.32580365180000   -0.16245701400000
H        -0.90172229570000   -4.50163227920000   -0.44618600370000
H        -3.37596028820000   -4.69636371510000   -0.49896112060000
H        -4.74655723400000   -2.64897427610000   -0.24023669020000
H        -4.71703119500000    2.69093851170000   -0.19744738370000
H        -3.32809033770000    4.73510575130000   -0.37067880320000
H        -0.85769278060000    4.52307483700000   -0.24599760160000
H         0.17560692030000    2.33411977190000   -0.00625525270000
H         0.74285222220000    0.24501263380000   -1.81808346880000
H         3.17892698840000    0.20278570330000   -1.59221243510000
