  24
        -33.65989310
 C         -3.5379811494        0.1487981964        0.1795222054
 C         -2.3941445598       -0.2147168035       -0.3833821348
 C         -1.1075885860        0.4472023924       -0.1553252357
 C         -1.0745009534        1.8250126040        0.0251927832
 C          0.1304934065        2.4783089710        0.1999034255
 C          1.3032509574        1.7572097273        0.1900289736
 C          1.3007141709        0.3718169335        0.0046554482
 O          2.5595079185       -0.1566574542        0.0723561274
 C          2.8334895269       -1.5118531399       -0.1770969504
 C          0.0861026328       -0.3015705199       -0.1721011239
 C         -0.0282785588       -1.7646161935       -0.3371939576
 C         -0.6920357904       -2.5394935216        0.5064954357
 H         -4.4612993078       -0.3602890410       -0.0384063354
 H         -3.5951856011        0.9543793063        0.8924727473
 H         -2.3788745533       -1.0575294929       -1.0622056994
 H         -1.9973651707        2.3832933402        0.0052593201
 H          0.1564771589        3.5486195081        0.3387209602
 H          2.2593282900        2.2368447838        0.3285697487
 H          3.8871871278       -1.6388080690        0.0735934303
 H          2.6908425234       -1.7644245790       -1.2319848420
 H          2.2316674601       -2.1761233411        0.4476280803
 H          0.4220131450       -2.1939864046       -1.2235489067
 H         -1.1553542658       -2.1395740561        1.3932468819
 H         -0.7877420795       -3.6009301507        0.3497682739
