  30
        -49.78206624
 C         -1.9710021623        1.4093303153        2.0045755101
 C         -2.8010461364        0.7705348575        1.1923169944
 C         -2.4355127786       -0.2726383197        0.2332554069
 C         -3.3303266314       -1.3249965486        0.0380527722
 C         -3.0318929617       -2.3772996194       -0.8048427669
 C         -1.8262218505       -2.3908140071       -1.4867119993
 C         -0.9375224167       -1.3449314092       -1.3235893000
 C         -1.2249362001       -0.2806724903       -0.4734866930
 C         -0.2737378933        0.8478804534       -0.4187486823
 C         -0.6887063551        2.0977062981       -0.8637932196
 C          0.1873180779        3.1657382188       -0.8965988345
 C          1.4979943553        2.9931368657       -0.4810039274
 C          1.9266495343        1.7580514596       -0.0359667876
 C          1.0552525193        0.6688398187       -0.0015163516
 C          1.4635220249       -0.6341627772        0.5087221438
 C          2.6950643535       -1.1049398255        0.6239733228
 F          3.8331674106       -0.5112500687        0.2788089167
 F          2.9727934897       -2.3130983588        1.1145242499
 H         -2.3290958535        2.1436278246        2.7060478979
 H         -0.9112142118        1.2215928470        2.0133064472
 H         -3.8646126649        0.9681407874        1.2580528028
 H         -4.2684106600       -1.3176249352        0.5750502742
 H         -3.7379371851       -3.1843099561       -0.9326672534
 H         -1.5833190174       -3.2074690643       -2.1498224746
 H         -0.0070846474       -1.3357919873       -1.8736513281
 H         -1.7106362510        2.2220176722       -1.1909724370
 H         -0.1496241690        4.1299713961       -1.2464382909
 H          2.1870791639        3.8239704033       -0.5001106732
 H          2.9443096047        1.6417886726        0.3004729684
 H          0.6768330578       -1.3065751419        0.8197648051
