  53
        -62.36219867
 C          3.8789390473       -0.5779424007        2.5296021061
 C          2.6908426032       -0.0040881146        2.3592845409
 C          1.7332772575       -0.3790877415        1.3542970881
 S          1.9963449004       -1.7806355297        0.3605463044
 C          0.5019636119       -1.5138529678       -0.4900133609
 C          0.1983433439       -2.4231767027       -1.5750528092
 C         -0.3246037572       -2.0879898117       -2.7493376450
 C         -0.1723411436       -0.4233754790        0.0043248315
 C         -1.5736303055       -0.0620625232       -0.3866241659
 C         -2.5783702827       -0.4747605697        0.7011189232
 C         -2.6404063210       -1.9831976233        0.9421980848
 C         -3.1660333743       -2.8129608916       -0.2310624889
 C         -4.5815190307       -2.4626285968       -0.6926381718
 C         -5.6371402240       -2.6748417533        0.3862024932
 C          0.5413572253        0.2361187614        1.0428158888
 C          0.1185433531        1.5293769654        1.6745322786
 C          0.9642927362        2.7046529089        1.1624521348
 C          0.7791938318        2.9437292623       -0.3334635506
 C          1.6734659168        4.0705150633       -0.8432892963
 C          1.4992954509        4.3102464704       -2.3409134423
 C          2.4026339622        5.4289777156       -2.8447759797
 H          4.5522540201       -0.2638494913        3.3074005704
 H          4.2130518822       -1.3799769197        1.8921941115
 H          2.3855248114        0.8022347925        3.0129538498
 H          0.4962755875       -3.4501591704       -1.3994069972
 H         -0.5755135162       -1.0716275365       -3.0012225981
 H         -0.5028228687       -2.8271411056       -3.5113555250
 H         -1.8419568772       -0.5581495426       -1.3157157157
 H         -1.6460617328        1.0154172277       -0.5492306616
 H         -3.5660867835       -0.1049077718        0.4206203064
 H         -2.3057909191        0.0020626915        1.6451251506
 H         -3.2685510250       -2.1646129653        1.8166031412
 H         -1.6367705206       -2.3394832762        1.1869116369
 H         -3.1496515305       -3.8638658289        0.0696163976
 H         -2.4854025307       -2.7107835532       -1.0783227375
 H         -4.8224093501       -3.0953589652       -1.5507222803
 H         -4.6152702231       -1.4274220565       -1.0367774370
 H         -5.5866269227       -3.6908812707        0.7721014500
 H         -6.6325035342       -2.5126808643       -0.0218914936
 H         -5.4952186828       -1.9848793183        1.2139985402
 H          0.2229448422        1.4611766527        2.7604142975
 H         -0.9285083363        1.7318659117        1.4537325388
 H          2.0194294899        2.5065941736        1.3613247620
 H          0.6833308945        3.6074107451        1.7105982971
 H         -0.2653937394        3.1940203451       -0.5364837787
 H          1.0134346240        2.0252079380       -0.8767763321
 H          2.7173581278        3.8207974233       -0.6385668134
 H          1.4419098990        4.9909185573       -0.3012022381
 H          0.4569296127        4.5648744592       -2.5471438606
 H          1.7273213773        3.3883339839       -2.8809410482
 H          2.1781078807        6.3613742863       -2.3310180434
 H          2.2638232647        5.5832691382       -3.9123517756
 H          3.4474816688        5.1841207563       -2.6663342186
