  23
        -42.29236027
 C         -1.9857481986        3.9782301479        0.2285635396
 C         -2.4845549352        2.7552844513        0.0959947897
 C         -1.7382950789        1.5019070431        0.0962542907
 C         -2.4262396710        0.3110104326       -0.1483392203
 C         -1.7880362745       -0.9170502761       -0.1491608371
 C         -2.5186239029       -2.2012268089       -0.3856330591
 C         -0.4178256998       -0.9346971619        0.0878809213
 F          0.2014813033       -2.1322051874        0.1430920811
 C          0.3158900348        0.2269166657        0.3168877569
 C          1.7575480852        0.2145878567        0.5596414516
 C          2.6414941151       -0.5598500846       -0.0481709055
 F          2.4179736930       -1.4316878535       -1.0160476261
 F          3.9463492069       -0.5176088970        0.2120075941
 C         -0.3691741192        1.4378131938        0.3350758752
 H         -2.6237825142        4.8448520557        0.2130711270
 H         -0.9344209309        4.1719768803        0.3528013921
 H         -3.5531450745        2.6381019249       -0.0348588333
 H         -3.4901025737        0.3451901427       -0.3342928425
 H         -3.5731864141       -2.0183816194       -0.5707220008
 H         -2.4174506096       -2.8554650809        0.4794666878
 H         -2.0915624636       -2.7235637725       -1.2406007505
 H          2.1448897344        0.9210191647        1.2780136721
 H          0.1900778281        2.3386958646        0.5299456124
