  31
        -50.04568696
 C         -6.3418810651        2.0641067879       -0.0262830118
 C         -6.2594853629        0.7358692520       -0.0170355281
 C         -5.0357795876       -0.0137915980       -0.0072075606
 C         -4.9015120148       -1.3817132029        0.0003782120
 C         -3.5733635249       -1.8178320994        0.0077068245
 C         -2.6631459211       -0.7840016178        0.0060522524
 C         -1.2414845563       -0.8685714282        0.0095383885
 C         -0.4584464578       -2.0022420506        0.0066852981
 C          0.9113179406       -1.7317262307        0.0080139133
 C          1.2054017053       -0.3873159484        0.0125482314
 C          2.4834392539        0.2362145838        0.0126673297
 C          2.7742978368        1.5804026361        0.0266977704
 C          4.1469390828        1.8473554554        0.0196805395
 C          4.9300917120        0.7184890675       -0.0005028382
 C          6.3638444033        0.6599102396       -0.0146148433
 C          7.0839833706       -0.4589391369       -0.0402599169
 S          3.9415881212       -0.7144785426       -0.0096526323
 S         -0.2527438735        0.5638191419        0.0154819285
 S         -3.4752022550        0.7536425460       -0.0045135593
 H         -7.2894725073        2.5724163859       -0.0337764229
 H         -5.4578469523        2.6803630938       -0.0267082046
 H         -7.1577915397        0.1310733565       -0.0169931416
 H         -5.7459184158       -2.0486002677        0.0003403715
 H         -3.2863679945       -2.8535759111        0.0142467044
 H         -0.8668132333       -2.9962975276        0.0028008028
 H          1.6755464788       -2.4888973132        0.0056448358
 H          2.0093684054        2.3368416486        0.0416521290
 H          4.5599732904        2.8407445347        0.0286106320
 H          6.8529751937        1.6259976220       -0.0036894552
 H          6.6131037541       -1.4281612102       -0.0518984619
 H          8.1590928652       -0.4399414334       -0.0505244326
