  30
        -41.32579835
 C         -5.8487056220        0.7917818348       -0.2284532272
 C         -5.0037299904       -0.1658124106        0.1358846770
 C         -3.5491030394       -0.1144729077        0.0829075235
 C         -2.8379674246        1.0067748557       -0.3487372902
 C         -1.4597615302        1.0053725036       -0.3771968677
 C         -0.7333386539       -0.1181276131        0.0168447237
 C          0.7333491786       -0.1180151124       -0.0184885260
 C          1.4594573124        1.0058525355        0.3750849253
 C          2.8376767826        1.0073173296        0.3474755938
 C          3.5491454927       -0.1142454573       -0.0827993274
 C          5.0038219338       -0.1656656057       -0.1343408024
 C          5.8484847121        0.7915123773        0.2318409542
 C          2.8178334405       -1.2354961776       -0.4810855811
 C          1.4394766813       -1.2410924389       -0.4463614002
 C         -1.4391435066       -1.2410324835        0.4457045259
 C         -2.8174770813       -1.2354999301        0.4812508864
 H         -6.9139538658        0.6564041044       -0.1515863497
 H         -5.5234171763        1.7418478636       -0.6161854134
 H         -5.4047124855       -1.0986289555        0.5149583828
 H         -3.3688007751        1.8908093230       -0.6669213233
 H         -0.9328817438        1.8797078092       -0.7316281106
 H          0.9323022326        1.8804251666        0.7285084369
 H          3.3682626394        1.8916420906        0.6652566209
 H          5.4051423871       -1.0981438667       -0.5138232966
 H          5.5228068035        1.7412994896        0.6199886381
 H          6.9138211541        0.6560431686        0.1562375775
 H          3.3450468973       -2.1151374137       -0.8241219201
 H          0.8987975163       -2.1165996418       -0.7759764022
 H         -0.8982163256       -2.1162715144        0.7756213942
 H         -3.3444199326       -2.1149238270        0.8252633036
