  46
        -76.74221598
 F          2.1722534601        5.5758863530       -0.1423988934
 C          2.0654588561        4.2474020052       -0.0824917617
 F          0.7816268145        3.9294925640        0.0571301553
 C          3.1089835102        3.4339180884       -0.1501953582
 C          3.1327078559        1.9818854253       -0.0929688128
 C          4.3908907613        1.3537676341       -0.0748513402
 C          4.5168993078       -0.0163904382       -0.0327423426
 C          1.9715610105        1.2130531716       -0.0610635615
 C          2.0976381723       -0.1640596996        0.0043619385
 C          3.3656622845       -0.7935894229        0.0046674948
 C          3.1202464524       -2.2055105432        0.0323077287
 C          3.9495885813       -3.3201130172        0.0615646102
 C          3.3716511078       -4.5721149870        0.1079220891
 C          1.9861217181       -4.7214375392        0.1399426269
 C          1.1407947547       -3.6293590588        0.1116403529
 C          1.7147540993       -2.3676932064        0.0415347523
 N          1.1111235157       -1.1270066972        0.0247703699
 C         -0.2708176138       -0.8836830025        0.0227704150
 C         -1.0944969977       -1.5250618076       -0.8974978937
 C         -2.4538704170       -1.2856491985       -0.8943674743
 C         -3.0213974546       -0.3913373112        0.0111056467
 C         -4.4675909048       -0.1294979940        0.0037310520
 C         -5.3775506129       -1.1705536773       -0.1654674480
 C         -6.7374976391       -0.9226154634       -0.1683284998
 C         -7.2103478380        0.3691133605       -0.0083496953
 C         -6.3143557614        1.4120352873        0.1571544181
 C         -4.9541909213        1.1657056561        0.1662067717
 C         -2.1864666607        0.2504190558        0.9237373970
 C         -0.8287620836        0.0034491736        0.9385470504
 H          4.0645791098        3.9280637809       -0.2516841728
 H          5.2776986034        1.9693859359       -0.1003220948
 H          5.4909773365       -0.4811960057       -0.0327189826
 H          0.9968155243        1.6690537697       -0.1021538290
 H          5.0226563917       -3.2027732782        0.0524976930
 H          3.9972094229       -5.4519339683        0.1290477235
 H          1.5639294915       -5.7141536210        0.1917829306
 H          0.0694953051       -3.7546654742        0.1545351413
 H         -0.6603119426       -2.1966175995       -1.6232878844
 H         -3.0818238640       -1.7753667678       -1.6239899132
 H         -5.0151296851       -2.1826702897       -0.2735643778
 H         -7.4320899006       -1.7405502829       -0.2939342263
 H         -8.2728892634        0.5621640973       -0.0127444644
 H         -6.6775840755        2.4222525529        0.2778972417
 H         -4.2593778194        1.9852811257        0.2779471558
 H         -2.6107281535        0.9302308426        1.6474355218
 H         -0.1955291843        0.4856343754        1.6680754754
  46
        -76.74200919
 F          2.1894380515        5.5593340284       -0.5050921288
 C          2.0777936760        4.2329406418       -0.4149681890
 F          0.7911553068        3.9072633802       -0.4963126655
 C          3.1202297874        3.4273554775       -0.2742608534
 C          3.1393996388        1.9779284689       -0.1686027366
 C          4.3959022735        1.3472923912       -0.1305899875
 C          4.5184863666       -0.0192545469       -0.0192950403
 C          1.9761601006        1.2145530806       -0.1004119994
 C          2.0985570285       -0.1615834704       -0.0109511856
 C          3.3651787106       -0.7915724855        0.0450726244
 C          3.1165903980       -2.1966924035        0.1799349111
 C          3.9431876775       -3.3103319219        0.2671247837
 C          3.3620708070       -4.5575129032        0.3694178691
 C          1.9759069080       -4.7046632273        0.3710252966
 C          1.1332404232       -3.6135003307        0.2857626786
 C          1.7107747320       -2.3540185404        0.2057790151
 N          1.1100294701       -1.1173059971        0.0893153733
 C         -0.2720295725       -0.8724999443        0.0805551780
 C         -0.8427706256       -0.1015594052       -0.9276154873
 C         -2.2020740402        0.1383672111       -0.9296660798
 C         -3.0231600993       -0.3855416275        0.0666603107
 C         -4.4709681387       -0.1304593745        0.0591860705
 C         -5.1947545225       -0.1838637448       -1.1297837903
 C         -6.5568841481        0.0516929290       -1.1351749992
 C         -7.2168380174        0.3507215756        0.0450089372
 C         -6.5063016885        0.4100698907        1.2321786290
 C         -5.1452491296        0.1683826103        1.2408562284
 C         -2.4416063570       -1.1574826675        1.0703390799
 C         -1.0825432774       -1.3986597967        1.0819027690
 H          4.0786443132        3.9254485346       -0.2439092283
 H          5.2842664913        1.9587461886       -0.1853399216
 H          5.4914490199       -0.4846169267        0.0213178121
 H          1.0028967809        1.6756522525       -0.1008020413
 H          5.0165318971       -3.1963444658        0.2505850018
 H          3.9854317687       -5.4362717929        0.4405454890
 H          1.5509634420       -5.6953827554        0.4366489419
 H          0.0612052624       -3.7392265080        0.2703176488
 H         -0.2180573174        0.2982491016       -1.7122339962
 H         -2.6323105715        0.7522824165       -1.7067757640
 H         -4.6879069023       -0.4328260292       -2.0508725249
 H         -7.1068915412        0.0002606975       -2.0636152728
 H         -8.2805464169        0.5371304444        0.0395161021
 H         -7.0151656099        0.6478302602        2.1550443258
 H         -4.5930176706        0.2332138971        2.1671821195
 H         -3.0641913156       -1.5826359821        1.8437376175
 H         -0.6390550363       -1.9854800852        1.8726377046
  46
        -76.74157700
 F          2.9543607114        5.8382025523       -0.1638639927
 C          3.3172948049        4.5549115303       -0.1160893248
 F          4.6435250697        4.4889254185       -0.0841189774
 C          2.4417135271        3.5604956108       -0.1031205380
 C          2.6843857778        2.1287011389       -0.0512919409
 C          3.9753559576        1.5748571573       -0.0232158595
 C          4.1695517090        0.2113810590        0.0061661515
 C          1.5680944332        1.2928193093       -0.0335785916
 C          1.7626608085       -0.0756270235        0.0215971112
 C          3.0646608060       -0.6306674080        0.0246409537
 C          2.9007188380       -2.0549275121        0.0360892551
 C          3.7929578921       -3.1198753618        0.0592801718
 C          3.2881394004       -4.4037046011        0.0891908907
 C          1.9135862207       -4.6333011747        0.1111230657
 C          1.0066285021       -3.5915157373        0.0881402466
 C          1.5072521199       -2.2984539845        0.0339851344
 N          0.8324208939       -1.0940432170        0.0260001240
 C         -0.5605358132       -0.9331091509        0.0224156874
 C         -1.3435755995       -1.6133017636       -0.9057737216
 C         -2.7150935610       -1.4589846549       -0.9003999088
 C         -3.3374859464       -0.6133569952        0.0159276472
 C         -4.7977268259       -0.4469371310        0.0138703944
 C         -5.6365931385       -1.5441086693       -0.1681889120
 C         -7.0100169358       -1.3876638301       -0.1662901980
 C         -7.5679627434       -0.1327283754        0.0114897902
 C         -6.7434315486        0.9654040787        0.1903169933
 C         -5.3698427847        0.8102864578        0.1945860660
 C         -2.5435016303        0.0697275291        0.9351748755
 C         -1.1727999200       -0.0917189460        0.9469405588
 H          1.4065713411        3.8702001029       -0.1347105226
 H          4.8341913212        2.2243932478       -0.0341838535
 H          5.1676257565       -0.1990611198        0.0113633822
 H          0.5734252114        1.7110292677       -0.0739599569
 H          4.8573483283       -2.9404245761        0.0582885992
 H          3.9634645870       -5.2460005218        0.1053055159
 H          1.5490762380       -5.6491562943        0.1506112916
 H         -0.0558477356       -3.7792608156        0.1231708987
 H         -0.8687294979       -2.2488050223       -1.6383914189
 H         -3.3116196192       -1.9786658124       -1.6355596155
 H         -5.2075602699       -2.5281855615       -0.2897864675
 H         -7.6484825745       -2.2485138165       -0.3018803117
 H         -8.6409619643       -0.0110604301        0.0107959462
 H         -7.1731296113        1.9473703742        0.3251265460
 H         -4.7316871538        1.6734246236        0.3171470331
 H         -3.0098219508        0.7114116561        1.6681307135
 H         -0.5697160946        0.4183449263        1.6834165305
