23
 energy: -44.946721758733 gnorm: 0.000100493181 xtb: 6.4.1 (23d549d)
C         3.37521683570000    1.54098646060000    0.77636840100000
C         2.55357245100000    1.43856011450000   -0.26057179200000
C         1.18177790350000    0.93218859900000   -0.17808029780000
S        -0.08953552780000    2.08665751840000   -0.34884210350000
C        -1.30300751110000    0.86297792890000   -0.12292338440000
C        -2.69617314880000    1.22543905350000   -0.14078142380000
C        -3.14031221770000    2.46914542970000   -0.29703615260000
C        -0.73952016080000   -0.38774355060000    0.02009944720000
C        -1.63337721380000   -1.56427614160000    0.31325945280000
O        -2.63440159530000   -1.41570190710000    0.96842412400000
O        -1.31851801310000   -2.73914371360000   -0.19532857540000
C         0.69628644520000   -0.34986700240000   -0.02125949410000
C         1.58027903490000   -1.53798702990000   -0.06291467750000
O         1.23629938460000   -2.58561453720000   -0.56687493380000
O         2.80860106920000   -1.42609967160000    0.43034136020000
H         4.36249061670000    1.95513484580000    0.67050749290000
H         3.08182538180000    1.25917344670000    1.77694288300000
H         2.85436267530000    1.80441917080000   -1.23478255210000
H        -3.38406792960000    0.40540153840000    0.00156074250000
H        -2.46987307380000    3.30590541710000   -0.41981850810000
H        -4.19237948660000    2.68989083580000   -0.30417836670000
H        -0.39690029280000   -2.79434974050000   -0.55437452910000
H         3.02512500100000   -0.53170975970000    0.74383275690000
