  34
        -52.78181815
 C         -4.7897139342        1.6115325923        0.7386358149
 C         -3.5595306989        1.9056789159        0.3354756934
 C         -2.4957224720        0.9567366425        0.0363992527
 C         -2.6120397830       -0.4226156159        0.2032449489
 C         -1.5870812811       -1.3091896245       -0.0901869469
 C         -1.7285073283       -2.7508357701        0.0873467519
 C         -2.6322449632       -3.3605907346        0.8440598765
 C         -0.3692141782       -0.8001261268       -0.5945226494
 O          0.5979474278       -1.7095201874       -0.8771726872
 C          1.8343119337       -1.2593320612       -1.3888379060
 C          2.6485543782       -0.4463731542       -0.4105260267
 C          3.5598008514        0.4942444460       -0.8730514415
 C          4.3164643647        1.2305861143        0.0205379183
 C          4.1636855594        1.0383241110        1.3833707503
 C          3.2565835747        0.1022384887        1.8488889280
 C          2.5049765979       -0.6409181030        0.9562325235
 C         -0.2223415424        0.5697515401       -0.7647792630
 C         -1.2700882187        1.4113575605       -0.4484517787
 F         -1.0744706890        2.7367881015       -0.6341520295
 H         -5.5102269388        2.3865705094        0.9341039433
 H         -5.1320733413        0.6018677841        0.8869695668
 H         -3.2851786268        2.9437281330        0.1993649784
 H         -3.5444199664       -0.8214621403        0.5660318747
 H         -0.9957230639       -3.3397519473       -0.4466938153
 H         -3.3623640400       -2.8249275578        1.4267449780
 H         -2.6658196006       -4.4338697964        0.9178782064
 H          1.6837135398       -0.6977473389       -2.3211876712
 H          2.3733169738       -2.1827087734       -1.6323034380
 H          3.6751112649        0.6500848696       -1.9367426174
 H          5.0220800270        1.9602937057       -0.3480469598
 H          4.7498333371        1.6185040401        2.0802848300
 H          3.1333098993       -0.0518398036        2.9105840704
 H          1.7971480876       -1.3727173061        1.3174529612
 H          0.6926176974        1.0093932278       -1.1261731687
  34
        -52.78081522
 C         -3.9352383459        2.8415002923        0.4177692779
 C         -3.7404261605        1.5347919253        0.5546904524
 C         -2.5711247025        0.7579655851        0.1647506199
 C         -2.6023107025       -0.6283907824        0.3310532749
 C         -1.5528153147       -1.4694457225       -0.0056561574
 C         -1.6113091965       -2.9144248820        0.1852272380
 C         -2.7048298753       -3.6360611150        0.3981087562
 C         -0.3761895480       -0.8962443701       -0.5363612972
 O          0.6270626643       -1.7516053181       -0.8591835126
 C          1.8271876312       -1.2321604149       -1.3911966577
 C          2.6163680072       -0.3824883526       -0.4235779451
 C          2.5213650333       -0.6011887095        0.9437843240
 C          3.2496226228        0.1758432302        1.8268199171
 C          4.0852772146        1.1711592426        1.3506920215
 C          4.1898071216        1.3884260911       -0.0129312819
 C          3.4560440562        0.6176848047       -0.8965242054
 C         -0.3123316234        0.4791162672       -0.7087568216
 C         -1.3893859527        1.2739955525       -0.3651765135
 F         -1.2328938811        2.6014697887       -0.5626575148
 H         -4.8544976758        3.2959677715        0.7473495281
 H         -3.2108202660        3.5052883455       -0.0171405037
 H         -4.5257027746        0.9350851654        1.0000504585
 H         -3.4931316911       -1.0641565656        0.7564924864
 H         -0.6525874096       -3.4100505952        0.1201877164
 H         -3.6907831617       -3.2056240374        0.4397321801
 H         -2.6515733350       -4.7030435062        0.5292279715
 H          1.6275892244       -0.6740034198       -2.3162282492
 H          2.4094541179       -2.1238574916       -1.6525085264
 H          1.8692675958       -1.3787424625        1.3140152330
 H          3.1641657134        0.0020099146        2.8891844216
 H          4.6531096835        1.7779662924        2.0400212607
 H          4.8393187550        2.1645654646       -0.3897929633
 H          3.5334413516        0.7929061037       -1.9606347348
 H          0.5672470691        0.9669728033       -1.0956767562
  34
        -52.78031329
 C         -4.7868818225        1.8691490202       -0.8103547290
 C         -3.5605051649        2.0809190696       -0.3483306619
 C         -2.5435855069        1.0697482401       -0.0945056934
 C         -2.6948077463       -0.2834995161       -0.3880277484
 C         -1.7189685542       -1.2447356249       -0.1454260225
 C         -2.0312528927       -2.6183378110       -0.5224072233
 C         -1.2509138799       -3.6921649409       -0.4771293082
 C         -0.5026314071       -0.8276232060        0.4434764134
 O          0.4362182043       -1.7706437319        0.6991625483
 C          1.6516900693       -1.3918748151        1.3106998064
 C          2.5391811801       -0.5301934437        0.4438761694
 C          3.4562810094        0.3344400619        1.0274123054
 C          4.2811201234        1.1137234964        0.2365380380
 C          4.1916771554        1.0405814722       -1.1434381470
 C          3.2789629773        0.1806627189       -1.7292817469
 C          2.4586810996       -0.6053976536       -0.9397144220
 C         -0.3230503075        0.5181332196        0.7420901937
 C         -1.3224488354        1.4297195734        0.4721268914
 F         -1.0822701463        2.7233099234        0.7851298929
 H         -5.4710718315        2.6854084034       -0.9641056994
 H         -5.1616156487        0.8889293801       -1.0499353778
 H         -3.2518931860        3.0927881918       -0.1195811761
 H         -3.6203207265       -0.6088814231       -0.8369916501
 H         -3.0426368424       -2.7371664282       -0.8946209896
 H         -0.2367170048       -3.6636061988       -0.1276088426
 H         -1.6232326489       -4.6511342194       -0.7983142085
 H          2.1557645836       -2.3451605091        1.5111208264
 H          1.4623421151       -0.9006296840        2.2749187756
 H          3.5223689233        0.3970940043        2.1047506174
 H          4.9907184221        1.7837142026        0.6988663234
 H          4.8313522884        1.6542393361       -1.7599432203
 H          3.2046749785        0.1198651942       -2.8048664062
 H          1.7459433218       -1.2772723120       -1.3954140623
 H          0.5927989201        0.8875705632        1.1728412140
  34
        -52.77945952
 C         -3.9161985238        3.0186004791        0.3470851346
 C         -3.7979081605        1.7009208306        0.4648551887
 C         -2.6480305132        0.8731634807        0.1267316437
 C         -2.7316883667       -0.5063353683        0.3197886374
 C         -1.7111155675       -1.4076063654        0.0372902586
 C         -1.9684942213       -2.8160339181        0.3114492588
 C         -1.1423599917       -3.8495215163        0.1951113748
 C         -0.5051889433       -0.8936860755       -0.4909222884
 O          0.4847667433       -1.7691967253       -0.7905940621
 C          1.6938036772       -1.2878878382       -1.3396259244
 C          2.5174362222       -0.4551971605       -0.3858946962
 C          2.4130609362       -0.6471764905        0.9848053482
 C          3.1752264722        0.1118158866        1.8549021866
 C          4.0535877499        1.0615041022        1.3625817487
 C          4.1668317372        1.2516654730       -0.0044024531
 C          3.3996936391        0.4992777515       -0.8754059264
 C         -0.3899545374        0.4769005642       -0.6879545197
 C         -1.4340787749        1.3280315293       -0.3842172540
 F         -1.2159157093        2.6417832927       -0.6117806668
 H         -4.8281907541        3.5149508691        0.6335753931
 H         -3.1334223874        3.6511095267       -0.0293760215
 H         -4.6362570535        1.1347277019        0.8536732275
 H         -3.6558466430       -0.9002309677        0.7191798943
 H         -2.9763900314       -3.0035232846        0.6645033282
 H         -0.1283992188       -3.7515812147       -0.1425547872
 H         -1.4742953803       -4.8444153995        0.4428210461
 H          1.5028943632       -0.7333653112       -2.2685380011
 H          2.2483696814       -2.1981915526       -1.5981552819
 H          1.7270795963       -1.3890174697        1.3671524886
 H          3.0827526202       -0.0405211293        2.9199855642
 H          4.6482921346        1.6536785269        2.0419367864
 H          4.8496515403        1.9921872535       -0.3937860208
 H          3.4841245935        0.6531863696       -1.9422233309
 H          0.5160295584        0.9195666714       -1.0680217615
  34
        -52.77810473
 C         -5.4364028808        1.9077015692       -0.6172274067
 C         -4.7788785327        0.7752107886       -0.3951438700
 C         -3.3385455191        0.5808696642       -0.2935897304
 C         -2.8545545379       -0.6924423080        0.0179277673
 C         -1.5081246445       -0.9962706862        0.1394216283
 C         -1.0306318110       -2.3374606039        0.4586590258
 C         -1.7429667589       -3.3071850192        1.0183452044
 C         -0.5635323465        0.0320583323       -0.0756062852
 O          0.7407822048       -0.3055723822        0.0526041782
 C          1.7337376959        0.6801028420       -0.1482049209
 C          3.0845945491        0.0526924168        0.0777468267
 C          4.1644729201        0.3948207961       -0.7241163602
 C          5.4080580634       -0.1689077063       -0.4983747827
 C          5.5798754853       -1.0859030815        0.5242755403
 C          4.5042399611       -1.4344094073        1.3234437830
 C          3.2629879804       -0.8644405327        1.1050836303
 C         -1.0130935768        1.3074183499       -0.3879371219
 C         -2.3685070677        1.5622536232       -0.4890309426
 F         -2.7101099491        2.8315416803       -0.8024601064
 H         -6.5122918867        1.9157251769       -0.6675269853
 H         -4.9514036698        2.8566116497       -0.7545326332
 H         -5.3458184635       -0.1387329864       -0.2618014946
 H         -3.5737163329       -1.4847506534        0.1584646165
 H          0.0103151910       -2.5078800023        0.2201730046
 H         -2.7721420506       -3.1810497475        1.3090480833
 H         -1.3110524323       -4.2723994822        1.2191219566
 H          1.5911164040        1.5072812055        0.5655542524
 H          1.6714026548        1.0860181501       -1.1671177800
 H          4.0328782835        1.1058931163       -1.5273302839
 H          6.2430175003        0.1047262538       -1.1263929626
 H          6.5494592700       -1.5291434488        0.6964698024
 H          4.6329036971       -2.1505962660        2.1215601479
 H          2.4209367623       -1.1340461849        1.7241432822
 H         -0.3353675266        2.1277680325       -0.5608632857
  34
        -52.77555692
 C         -4.4182066445        1.7611643737       -0.9214266540
 C         -3.2688980372        1.9853855853       -0.2963272403
 C         -2.2748299725        0.9845513315        0.0720110987
 C         -2.3468570465       -0.3533325291       -0.3088105597
 C         -1.3868774735       -1.2903883495        0.0526045095
 C         -1.4926877187       -2.6947235760       -0.3384920764
 C         -2.1057271519       -3.1472712260       -1.4238836789
 C         -0.3003623969       -0.8718843665        0.8389315950
 O          0.6778464292       -1.7577768995        1.2289637784
 C          1.6460561836       -2.0393009224        0.2175363822
 C          2.3943498119       -0.7936821821       -0.1766651163
 C          3.4989058697       -0.3744207920        0.5532690200
 C          4.1354678707        0.8131511926        0.2391456100
 C          3.6679911657        1.5970282555       -0.8022174775
 C          2.5641416945        1.1881709328       -1.5307700094
 C          1.9292924058       -0.0009562652       -1.2186866395
 C         -0.2003285103        0.4545907231        1.2331598056
 C         -1.1750712725        1.3519733822        0.8516943659
 F         -1.0450771601        2.6356023802        1.2533896055
 H         -5.0923712884        2.5681741351       -1.1500455320
 H         -4.7396031571        0.7791501922       -1.2234366569
 H         -3.0150579058        2.9969153211       -0.0075396481
 H         -3.1882641703       -0.6829449269       -0.8963080490
 H         -1.0003095631       -3.3864686959        0.3334310398
 H         -2.5777044830       -2.4902482040       -2.1353804987
 H         -2.1464986532       -4.1989984464       -1.6493172198
 H          1.1545437087       -2.4832917571       -0.6594618235
 H          2.3124675065       -2.7751390473        0.6728741984
 H          3.8556256024       -0.9815171105        1.3726715729
 H          4.9954395394        1.1299997659        0.8107259051
 H          4.1620686438        2.5262541831       -1.0442803195
 H          2.1937701201        1.7977545250       -2.3416296287
 H          1.0650078262       -0.3170739139       -1.7865751663
 H          0.6356521095        0.7810613639        1.8310629989
  34
        -52.77450326
 C         -4.0844626620        1.6454911951        1.6730654497
 C         -3.4923258519        1.8786616972        0.5078256875
 C         -2.4190943658        1.0968609781       -0.0898344965
 C         -1.8894078435       -0.0606605687        0.4744205132
 C         -0.8755066796       -0.8090733119       -0.1115247208
 C         -0.4966144892       -2.0694481553        0.5463505354
 C         -0.1873079816       -2.1633230021        1.8293176368
 C         -0.3159345503       -0.3556146312       -1.3158060422
 O          0.7101770128       -0.9230695756       -2.0114521737
 C          1.7288935599       -1.6523020445       -1.3523976212
 C          2.3143429060       -0.9704693870       -0.1416910553
 C          2.3414233474        0.4131752314       -0.0407020219
 C          2.8809919025        1.0216469150        1.0792040537
 C          3.4125380420        0.2542033591        2.1002330260
 C          3.4054278177       -1.1268260366        1.9963822615
 C          2.8548464921       -1.7355226650        0.8840658189
 C         -0.8391608058        0.7923827621       -1.9107261354
 C         -1.8684327599        1.4820758072       -1.3143594958
 F         -2.3386123391        2.5831022056       -1.9419183203
 H         -4.8739095166        2.2826834072        2.0319742239
 H         -3.8143987368        0.8229714784        2.3128279069
 H         -3.8113733697        2.7266708670       -0.0841416274
 H         -2.3030240913       -0.4262091115        1.4008770693
 H         -0.5369381569       -2.9568636290       -0.0729788249
 H         -0.1317268474       -1.2914105910        2.4596106916
 H          0.0441815143       -3.1069239507        2.2927073865
 H          2.5051582070       -1.7563669584       -2.1215188675
 H          1.3897880584       -2.6598400376       -1.0859209350
 H          1.9386962578        1.0181882121       -0.8391487954
 H          2.8883428160        2.0991423073        1.1504595380
 H          3.8338767587        0.7296020698        2.9734948593
 H          3.8242469250       -1.7315298749        2.7871814696
 H          2.8429448755       -2.8133966779        0.8084056915
 H         -0.4247750497        1.1347170280       -2.8455232642
  34
        -52.77395757
 C         -5.0880163277        1.8924903730       -0.7978380031
 C         -4.1163154901        1.0525206832       -1.1363742542
 C         -2.8915177919        0.7636533576       -0.4034622191
 C         -2.0242179386       -0.2062855163       -0.9012835140
 C         -0.8220495247       -0.5785948681       -0.3056847406
 C         -0.0147814890       -1.5847015320       -1.0138527459
 C         -0.5088803125       -2.7229221354       -1.4777061299
 C         -0.4625235899        0.0502918599        0.8960826151
 O          0.6072040364       -0.1920944309        1.6985212713
 C          1.5461371692       -1.2090831411        1.4364019901
 C          2.6503966057       -0.8066102749        0.4867321341
 C          3.4997451705       -1.7812287618       -0.0251998070
 C          4.5229617047       -1.4320216628       -0.8866448381
 C          4.7064311648       -0.1066315825       -1.2470124754
 C          3.8656867266        0.8668539595       -0.7374918104
 C          2.8435168526        0.5197510841        0.1295061768
 C         -1.3083020102        1.0350799694        1.4120853218
 C         -2.4783472682        1.3819379965        0.7796916931
 F         -3.2174818735        2.3529096771        1.3571787344
 H         -5.9515135044        2.0152280102       -1.4298479802
 H         -5.0728739826        2.4824142913        0.1000773550
 H         -4.2095404015        0.4896710688       -2.0578625980
 H         -2.2875862600       -0.6953683239       -1.8280780335
 H          1.0205463127       -1.3303837332       -1.1991729977
 H         -1.5327689169       -3.0107554555       -1.3038263807
 H          0.0985289353       -3.4179430424       -2.0317526579
 H          1.0489613653       -2.1200054262        1.0802393160
 H          1.9891064000       -1.4242996368        2.4177111610
 H          3.3505584884       -2.8153141938        0.2516276320
 H          5.1771950804       -2.1956218858       -1.2806794306
 H          5.5033878671        0.1645429296       -1.9231824079
 H          4.0045282267        1.9016547010       -1.0133292326
 H          2.1888381301        1.2796128025        0.5297885237
 H         -1.0314014817        1.5224843853        2.3331673222
