  23
        -33.67035374
 C         -2.6699537349        1.8106883436       -0.0111638759
 C         -1.3887391096        1.0242241072        0.0028881092
 C         -0.1799217985        1.6864768284        0.0007932458
 C          0.9921102709        0.9408864217        0.0038412862
 N          2.3059051434        1.3435982679        0.0036091299
 C          2.9996594146        0.2526871672       -0.0005076186
 N          2.2377928066       -0.8817909569       -0.0025803663
 C          0.9268064347       -0.4697202055        0.0006919472
 C         -0.2759814149       -1.1629527043        0.0040245887
 C         -0.3308027712       -2.6657527074       -0.0087961590
 C         -1.4401967489       -0.3906571981        0.0138850497
 N         -2.6771701075       -1.0238592832       -0.0420227374
 H         -2.4536407791        2.8734491512       -0.0746413827
 H         -3.2487854813        1.6394543770        0.8988262735
 H         -3.2848142214        1.5323885743       -0.8667708496
 H         -0.1356252118        2.7636852252       -0.0047017240
 H          4.0723283456        0.2168905367       -0.0012694795
 H          2.5742910079       -1.8290100448       -0.0068555856
 H          0.6677519089       -3.0891312632       -0.0792948347
 H         -0.9108047082       -3.0205776172       -0.8606783569
 H         -0.7924094189       -3.0498163211        0.9035586170
 H         -2.6855782829       -1.9735580780        0.2935434836
 H         -3.4511156023       -0.4782521245        0.3005650103
