  33
        -39.15015476
 C          3.4911885333        2.2205505559        0.2599569766
 C          4.2108214235        0.8947689071        0.0408875220
 C          3.3965886852       -0.1026243916       -0.7839156678
 C          2.1458377028       -0.6000922015       -0.0635745343
 C          1.4120868671       -1.6670525433       -0.8709537433
 C          0.1324707524       -2.1423068660       -0.1719197130
 C         -0.8738580274       -1.0392097811       -0.0550180617
 C         -1.5828676902       -0.5321292223       -1.1787346426
 C         -2.4325417557        0.4824293238       -0.8860502569
 C         -3.3259910961        1.2446706129       -1.7986299174
 S         -2.3846228034        0.8483421625        0.8115899454
 C         -1.2001458288       -0.3927614029        1.0981036031
 C         -0.6929662906       -0.6227203075        2.4807935487
 H          4.1387811810        2.9191041968        0.7853110055
 H          2.5902153295        2.0842986769        0.8522785428
 H          3.2119242470        2.6631883044       -0.6938312840
 H          4.4528020057        0.4487582741        1.0086014479
 H          5.1534301222        1.0874956819       -0.4774285757
 H          4.0307351265       -0.9612242947       -1.0208677578
 H          3.1073789981        0.3638037200       -1.7287461152
 H          1.4660211496        0.2345537562        0.1128065588
 H          2.4316012911       -1.0154068508        0.9063901244
 H          2.0717490402       -2.5243007137       -1.0263776062
 H          1.1558240188       -1.2611424046       -1.8520323609
 H          0.3818826235       -2.5253946386        0.8186468565
 H         -0.3046933562       -2.9590303775       -0.7526047259
 H         -1.4582373391       -0.9246856831       -2.1732161292
 H         -3.2277560742        0.8663772651       -2.8135958699
 H         -3.0710556583        2.3044815672       -1.7922320711
 H         -4.3662889507        1.1506272913       -1.4873790594
 H         -1.1968702963        0.0408575046        3.1790149579
 H          0.3792529777       -0.4344676785        2.5370756623
 H         -0.8732358565       -1.6524473026        2.7908271332
  33
        -39.15012071
 C          5.5211818853        1.3608951960       -0.6002835931
 C          4.4176436698        0.3734862694       -0.2401930647
 C          3.0654959485        1.0695402062       -0.0982831587
 C          1.9472295450        0.1409899974        0.3749402469
 C          1.5660060092       -0.9204851214       -0.6537386461
 C          0.3640105443       -1.7571721388       -0.1978129105
 C         -0.8786628272       -0.9296498004       -0.0796948210
 C         -1.5575182149       -0.4054574614       -1.2141536821
 C         -2.6513885705        0.3353932235       -0.9116633722
 C         -3.5934533177        1.0278772301       -1.8309319698
 S         -2.8823478061        0.4090357905        0.8086703930
 C         -1.4761598528       -0.5746568710        1.0911869942
 C         -1.0869763384       -0.9220144957        2.4875796980
 H          6.4760190533        0.8498421612       -0.7009671105
 H          5.6192616926        2.1225448642        0.1704936082
 H          5.2961555744        1.8563639455       -1.5423831576
 H          4.6677113339       -0.1215507023        0.7012623967
 H          4.3596096559       -0.3929407279       -1.0147898063
 H          2.7846029952        1.5120564739       -1.0570379219
 H          3.1684834717        1.8853791275        0.6219440314
 H          1.0628827033        0.7443503262        0.5937304967
 H          2.2550599935       -0.3490233314        1.3022962347
 H          2.4100047609       -1.5906549234       -0.8254996172
 H          1.3252068894       -0.4312739556       -1.6000279358
 H          0.5918215141       -2.2244754449        0.7612769743
 H          0.1899511837       -2.5508672991       -0.9295481146
 H         -1.2331265561       -0.5869038207       -2.2243170905
 H         -3.2881529274        0.8684284885       -2.8625474493
 H         -3.6106806245        2.0991776875       -1.6307815354
 H         -4.6071691868        0.6487648783       -1.7017477462
 H         -1.7886319159       -0.4819169542        3.1916187532
 H         -0.0881553701       -0.5498061237        2.7151986231
 H         -1.0872751143       -2.0032268448        2.6299115746
  33
        -39.14994492
 C          5.9093410783       -0.2391123599        0.9455376083
 C          5.0517753267        0.2026934993       -0.2339981610
 C          3.5648884482        0.2070180056        0.1137555146
 C          2.7050818288        0.6388468632       -1.0721938675
 C          1.2217009165        0.7734739418       -0.7302803074
 C          0.5525617439       -0.5667830612       -0.4052208532
 C         -0.9185991675       -0.3893639030       -0.1902052281
 C         -1.8746828289       -0.5687362295       -1.2274797466
 C         -3.1544400505       -0.3322004065       -0.8492023849
 C         -4.3992333588       -0.4238832922       -1.6578575547
 S         -3.2211484961        0.1298406437        0.8242229739
 C         -1.4938677336       -0.0078988778        0.9836476984
 C         -0.8504359050        0.3033133122        2.2895273452
 H          6.9631586671       -0.2347157382        0.6767967505
 H          5.6394299537       -1.2457515436        1.2580096010
 H          5.7682549638        0.4302875882        1.7915520534
 H          5.2218126613       -0.4698429805       -1.0780839413
 H          5.3528650843        1.2056617759       -0.5456092483
 H          3.3931356029        0.8887265884        0.9505224488
 H          3.2763740762       -0.7953298500        0.4356022167
 H          2.8249393925       -0.0801882660       -1.8863678764
 H          3.0670381268        1.6054566559       -1.4322049257
 H          0.7017054966        1.2215365558       -1.5806871147
 H          1.1037106424        1.4478920042        0.1204457668
 H          1.0069386273       -0.9975522503        0.4883194305
 H          0.7120085829       -1.2577807585       -1.2356458898
 H         -1.6032605891       -0.8704896376       -2.2244466187
 H         -4.1582768369       -0.7247094911       -2.6748447693
 H         -4.9119961644        0.5374461883       -1.6874734059
 H         -5.0851692369       -1.1539497393       -1.2283175251
 H         -1.5227128730        0.0652122210        3.1111606736
 H         -0.6018826927        1.3640087317        2.3547911489
 H          0.0683985999       -0.2678676393        2.4075392358
  33
        -39.14986397
 C          2.5950610363        2.0277424485       -1.5689751446
 C          3.6542986121        1.1782458745       -0.8755903223
 C          3.0892956334        0.3392862688        0.2714370518
 C          2.2181462700       -0.8168921077       -0.2143800718
 C          1.6529008792       -1.6675104102        0.9229942809
 C          0.5912295538       -0.9399241679        1.7600338151
 C         -0.5370281979       -0.4303600493        0.9162855052
 C         -0.6592970237        0.9340482534        0.5332639860
 C         -1.7243105218        1.1949316809       -0.2629489514
 C         -2.1522295122        2.4919184730       -0.8515902100
 S         -2.6292999006       -0.2568655041       -0.5672673991
 C         -1.5331451659       -1.2020252957        0.3994037530
 C         -1.7621709607       -2.6654768348        0.5465447629
 H          3.0470533098        2.6290151153       -2.3548098051
 H          2.1196446277        2.6988754796       -0.8566504920
 H          1.8251189470        1.4060689770       -2.0181137022
 H          4.4290777077        1.8394695328       -0.4792459801
 H          4.1270789370        0.5181979443       -1.6066434021
 H          2.5110281670        0.9902285065        0.9285530157
 H          3.9186030224       -0.0685377354        0.8556812496
 H          2.8204902034       -1.4575629675       -0.8638472796
 H          1.3875931283       -0.4315575393       -0.8069822252
 H          2.4655443196       -1.9844778822        1.5812798125
 H          1.2019765387       -2.5648895114        0.4944080470
 H          1.0482716262       -0.1007694425        2.2856289460
 H          0.2075514007       -1.6332553353        2.5133644152
 H          0.0325449750        1.6946693365        0.8505436498
 H         -1.4677145259        3.2801101434       -0.5464588821
 H         -3.1581136452        2.7524085779       -0.5225633850
 H         -2.1615448062        2.4374551647       -1.9402059347
 H         -2.8271284092       -2.8879147239        0.5227361159
 H         -1.3473865870       -3.0217819284        1.4875562826
 H         -1.2863589171       -3.2160864315       -0.2668536308
  33
        -39.14980041
 C          2.6792797135        1.2811537261       -1.4313976138
 C          3.6301951279        0.4710802669       -0.5575921063
 C          3.3826722353        0.6554839629        0.9414343552
 C          1.9716187102        0.2948046160        1.4061380960
 C          1.6269412164       -1.1795274623        1.2140835756
 C          0.1672289277       -1.4733870394        1.5813600505
 C         -0.7814332337       -0.7328350425        0.6883628261
 C         -1.4756145825        0.4390559824        1.0982656084
 C         -2.2553974853        0.9882188206        0.1351836756
 C         -3.1110450059        2.2025363014        0.2067492999
 S         -2.1581176089        0.0623747961       -1.3317542182
 C         -1.0491354262       -1.0653378493       -0.6050950287
 C         -0.5228514715       -2.1982737574       -1.4149658298
 H          2.9746382867        1.2094408439       -2.4760645627
 H          2.6966742782        2.3298206251       -1.1420393183
 H          1.6587756982        0.9169299551       -1.3442070591
 H          4.6568398114        0.7801923273       -0.7703092089
 H          3.5523130704       -0.5856892538       -0.8194886475
 H          3.5712013467        1.7012766640        1.1977284800
 H          4.1055164976        0.0466148746        1.4910293241
 H          1.2457028469        0.9067518970        0.8695562962
 H          1.8832685010        0.5420128756        2.4675603467
 H          2.2861433004       -1.7922580186        1.8338168861
 H          1.7852884012       -1.4625789826        0.1737284258
 H         -0.0138246940       -1.1782469007        2.6166778900
 H         -0.0114297366       -2.5489748584        1.5010454672
 H         -1.3885914177        0.8514672902        2.0886868671
 H         -3.0385550752        2.6481258392        1.1962094344
 H         -4.1533593180        1.9521646555        0.0093744570
 H         -2.7993640911        2.9385332558       -0.5343602677
 H         -1.2766554099       -2.5438211963       -2.1197794705
 H         -0.2369997909       -3.0259366236       -0.7689012957
 H          0.3542468309       -1.8919161182       -1.9879448304
  33
        -39.14973505
 C          2.8881725414        2.1862066066       -1.5307929822
 C          3.0629222020        1.4603480131       -0.2027015375
 C          2.2423737166        0.1741400291       -0.1522981118
 C          2.3967061319       -0.5500043372        1.1834010415
 C          1.5573174288       -1.8265807959        1.2870482406
 C          0.1162812231       -1.5886121983        1.7601421181
 C         -0.7040186917       -0.7638038205        0.8172349029
 C         -1.0270807202        0.6001119334        1.0629870697
 C         -1.7650426850        1.1805554376        0.0854704593
 C         -2.2726527376        2.5760924712        0.0037414350
 S         -2.0956348531        0.0443884352       -1.1873216796
 C         -1.2200908601       -1.2122479456       -0.3609212306
 C         -1.1035438732       -2.5580973370       -0.9854099682
 H          3.4710599055        3.1043813474       -1.5478920856
 H          1.8419353924        2.4393760808       -1.6891754799
 H          3.2149855659        1.5565787319       -2.3556659064
 H          2.7499491719        2.1175888264        0.6121286982
 H          4.1194466421        1.2258185568       -0.0509069029
 H          2.5631655233       -0.4895027171       -0.9594044125
 H          1.1941416582        0.4186529470       -0.3210683994
 H          2.1258427937        0.1276623241        1.9962143031
 H          3.4510986821       -0.8083100748        1.3136948989
 H          2.0289787345       -2.5025346456        2.0048315074
 H          1.5445114906       -2.3299959400        0.3190340149
 H          0.1416203518       -1.0901696845        2.7313812463
 H         -0.3637299346       -2.5619913670        1.8982651083
 H         -0.7091633049        1.1250348423        1.9472417315
 H         -1.9607206404        3.1352146125        0.8829121276
 H         -3.3610827790        2.5882535661       -0.0529282856
 H         -1.8877136197        3.0755062417       -0.8854079069
 H         -1.9895247523       -2.7812315036       -1.5764725098
 H         -0.9870030155       -3.3225400196       -0.2194690182
 H         -0.2376594597       -2.6037908330       -1.6481968558
  33
        -39.14935005
 C          5.2903628745        0.3395218020        1.0027597918
 C          4.2924450909        0.2111212133       -0.1418199418
 C          2.8985523295        0.6767332435        0.2740903258
 C          1.8778677270        0.6273703334       -0.8641772267
 C          1.4569238478       -0.7834655861       -1.2770448014
 C          0.5494961044       -1.4731170443       -0.2498618218
 C         -0.7621919940       -0.7645905507       -0.1074274872
 C         -1.7433484078       -0.7759111092       -1.1376949964
 C         -2.8597960836       -0.0645311563       -0.8488267883
 C         -4.0759489340        0.1423583981       -1.6795590635
 S         -2.7362792630        0.6503653472        0.7295453717
 C         -1.1549790942       -0.0344980580        0.9726261743
 C         -0.4349282000        0.2289470449        2.2506957212
 H          6.2772370796        0.0052083463        0.6909755223
 H          4.9766574427       -0.2639512664        1.8521895277
 H          5.3663131222        1.3746083571        1.3294872465
 H          4.2550686277       -0.8307041919       -0.4649325099
 H          4.6339009783        0.8095860147       -0.9898231072
 H          2.9708492195        1.7081841428        0.6294492585
 H          2.5532005511        0.0669685964        1.1106502585
 H          2.3037842184        1.1353097936       -1.7331245570
 H          0.9833113647        1.1801744677       -0.5682288830
 H          2.3412117185       -1.4011873407       -1.4414089776
 H          0.9191744667       -0.7199420798       -2.2256312786
 H          1.0535558398       -1.5256183867        0.7148134974
 H          0.3608408854       -2.4964627153       -0.5863884280
 H         -1.6111649230       -1.3090137340       -2.0634282484
 H         -3.9684100192       -0.3778216547       -2.6286373215
 H         -4.2333998245        1.2029257972       -1.8756565923
 H         -4.9611824129       -0.2368722830       -1.1690046078
 H         -1.1192942691        0.6449545796        2.9860658007
 H          0.3781763723        0.9400099183        2.0996958102
 H         -0.0122532592       -0.6917564245        2.6517444084
  33
        -39.14915993
 C          4.9611457340        0.3305651911       -1.2831654020
 C          4.4373094321        0.6897791696        0.1023834186
 C          3.0467706601        1.3269214929        0.0762952538
 C          1.9383075856        0.4392863427       -0.4908899778
 C          1.6966584731       -0.8260567149        0.3277078181
 C          0.4935031421       -1.6235958619       -0.1919235253
 C         -0.7871753770       -0.8548872292       -0.0780734279
 C         -1.3937881583       -0.1943786368       -1.1821223798
 C         -2.5347010517        0.4690684448       -0.8736879884
 C         -3.4226406301        1.2626646966       -1.7645852784
 S         -2.9037585306        0.2971493230        0.8152953872
 C         -1.4892634352       -0.6823187110        1.0761089568
 C         -1.1922910629       -1.1911969268        2.4431163933
 H          5.9899392781       -0.0171613713       -1.2191592210
 H          4.9332582224        1.1995394057       -1.9373312664
 H          4.3665832150       -0.4594697215       -1.7341795840
 H          5.1258679354        1.4005949274        0.5662328608
 H          4.4233360468       -0.2031813716        0.7294937265
 H          3.0950551521        2.2418060588       -0.5199890548
 H          2.7773511634        1.6141093301        1.0961274888
 H          2.1733533942        0.1662862926       -1.5211655924
 H          1.0145285153        1.0226370910       -0.5110619436
 H          1.5236797848       -0.5529849632        1.3705838670
 H          2.5785374932       -1.4679356518        0.2890479229
 H          0.4152060743       -2.5550769497        0.3750047518
 H          0.6601042029       -1.8812703703       -1.2398666881
 H         -0.9822335607       -0.2227964438       -2.1763102613
 H         -3.0351047072        1.2483998489       -2.7806875273
 H         -3.4840704407        2.2970456377       -1.4262977517
 H         -4.4325253626        0.8527696513       -1.7672630179
 H         -2.1153999775       -1.3756249536        2.9888879546
 H         -0.6077135831       -0.4640276276        3.0093111908
 H         -0.6225680454       -2.1168275314        2.3882736512
  33
        -39.14911210
 C          5.6951936836       -0.3421346405        0.1928321958
 C          5.0224404336        0.5482207602       -0.8455094216
 C          3.5054163868        0.3646252455       -0.9018137009
 C          2.7992522321        0.8280399814        0.3714845199
 C          1.2795120581        0.8932116732        0.2250533364
 C          0.6334261876       -0.4821129328        0.0210566349
 C         -0.8586149044       -0.3636618686       -0.0084685051
 C         -1.5826248050       -0.0273107574       -1.1846160941
 C         -2.9221893895        0.0702902442       -1.0008522354
 C         -3.9799227742        0.3963017607       -1.9943074595
 S         -3.3366732429       -0.2524976264        0.6551838911
 C         -1.6699858988       -0.5155758330        1.0744326724
 C         -1.2998049471       -0.8626722823        2.4753732654
 H          6.7765891892       -0.2389551522        0.1354313117
 H          5.4413966292       -1.3859945053        0.0202551822
 H          5.3830051329       -0.0728759237        1.1984395700
 H          5.4375994047        0.3176845382       -1.8298252425
 H          5.2514365843        1.5942808744       -0.6284060952
 H          3.2852848992       -0.6887084476       -1.0848422293
 H          3.1163880684        0.9387996302       -1.7468442182
 H          3.1644175679        1.8253396271        0.6307577100
 H          3.0470890870        0.1580919346        1.1968147630
 H          1.0199981986        1.5381798901       -0.6176725747
 H          0.8566351725        1.3451780703        1.1258070800
 H          0.9390933740       -1.1470191811        0.8311623492
 H          0.9737160239       -0.9102084610       -0.9230182255
 H         -1.1068655727        0.1315490744       -2.1370269127
 H         -3.5306958713        0.5699941224       -2.9694252359
 H         -4.5281328194        1.2896549359       -1.6954020037
 H         -4.6958820077       -0.4213371302       -2.0776942182
 H         -2.1935157376       -0.9777081890        3.0833253149
 H         -0.6792000618       -0.0821764827        2.9167051289
 H         -0.7376786889       -1.7966293703        2.5039425612
