31
 energy: -45.394845179097 gnorm: 0.000067963794 xtb: 6.4.1 (23d549d)
C        -0.83215169050000    3.69435953330000    0.04079679870000
C        -1.80557291370000    2.79657003850000    0.12743981740000
C        -1.64633419300000    1.34583433010000    0.15203757950000
C        -2.76716736050000    0.54195657950000   -0.03702011550000
C        -2.67647377650000   -0.84781670520000   -0.02307102890000
C        -3.83047068000000   -1.72003607700000   -0.21526189880000
C        -5.05241146570000   -1.35030424400000   -0.57791851820000
C        -1.42830717360000   -1.43133578230000    0.18383408330000
C        -0.30113668120000   -0.64129328300000    0.36900967860000
O         0.87691962870000   -1.29220620130000    0.63385320480000
C         2.06928313340000   -0.75900292940000    0.22095202790000
C         2.21068224470000   -0.03736818520000   -0.95998907840000
C         3.46044594420000    0.41650352980000   -1.33987013550000
C         4.57284094900000    0.15172631630000   -0.55949097240000
C         4.43274766990000   -0.58228567880000    0.60669834950000
C         3.18862046610000   -1.03681364250000    0.99977729810000
C        -0.40858555760000    0.74191414300000    0.36622902900000
H        -1.04381716270000    4.74970491320000    0.02088037670000
H         0.20787619540000    3.42260015070000   -0.02167595230000
H        -2.83316828460000    3.13725609370000    0.16354492590000
H        -3.72485879580000    1.01457332690000   -0.19094540500000
H        -3.62907733940000   -2.77103187720000   -0.04775960530000
H        -5.31826019630000   -0.32602170940000   -0.77531148900000
H        -5.84240719620000   -2.07167603440000   -0.69825229790000
H        -1.31781837040000   -2.50481278300000    0.20677100470000
H         1.34660315230000    0.15746701240000   -1.57880532070000
H         3.56334391310000    0.97680390450000   -2.25753270440000
H         5.54485398370000    0.51071937100000   -0.86193521420000
H         5.29673310320000   -0.79931650170000    1.21705035590000
H         3.06222695360000   -1.61103324040000    1.90438444820000
H         0.46776708140000    1.34258748760000    0.55427125260000
