  22
        -29.87597060
 C          1.6660152953        2.4374413771       -0.4885185184
 C          0.7791735319        1.9452740245        0.3628468735
 C          0.0765591952        0.6718932283        0.1880047023
 C         -1.3042372105        0.6516355323        0.3723614653
 C         -2.0448166617       -0.4888834307        0.0986321342
 C         -3.5238737443       -0.5429108345        0.3135420228
 C         -1.3377809828       -1.5837244585       -0.3908367806
 N         -0.0297049226       -1.6026544498       -0.5309469839
 C          0.6892692063       -0.5270827058       -0.2200119511
 C          2.1365049008       -0.7405569073       -0.2967920632
 C          3.0273394809       -0.2602875692        0.5578727676
 H          2.1162822718        3.4042207571       -0.3413019360
 H          1.9761637381        1.8890771137       -1.3620395202
 H          0.4606350888        2.5335415705        1.2156535566
 H         -1.8047358531        1.5503598147        0.7091887303
 H         -3.9629424611        0.4497035568        0.2419803532
 H         -3.7402863959       -0.9389669928        1.3064701907
 H         -3.9955556907       -1.1953463364       -0.4179450756
 H         -1.8502130475       -2.4945347452       -0.6753325619
 H          2.4355803403       -1.4368880093       -1.0686648787
 H          2.7490888415        0.3932746080        1.3676807725
 H          4.0726020028       -0.5061327492        0.4789578380
