  23
        -42.06561046
 C          4.0684449267        1.3333240970        0.5293629200
 C          3.6811575787        0.0881661876        0.2764313145
 C          2.3125077088       -0.3716579290        0.0859509989
 C          2.0712343202       -1.7270465180       -0.1599226128
 C          0.7945644055       -2.2123761938       -0.3505435092
 C         -0.3116410045       -1.3593048704       -0.3022666401
 C         -1.6803057539       -1.8097114227       -0.5105126698
 C         -2.1116702771       -3.0495252731       -0.3096076310
 C         -0.0558307231       -0.0115612738       -0.0590679920
 S         -1.4774571438        1.0523320734        0.0323147329
 O         -2.0311299376        1.3294196232       -1.2468907928
 O         -2.3238139587        0.7181401800        1.1222990757
 F         -0.7218718815        2.4507938654        0.4836241813
 C          1.2085507067        0.4858051620        0.1343152672
 H          5.1091305663        1.5765774498        0.6558931907
 H          3.3783450192        2.1538555334        0.6214836275
 H          4.4298474529       -0.6902747779        0.1984401378
 H          2.9086217575       -2.4085000237       -0.2057994925
 H          0.6458482050       -3.2604050055       -0.5579874591
 H         -2.3665559284       -1.0403049283       -0.8360413418
 H         -1.4674783031       -3.8343530833        0.0504851663
 H         -3.1393127837       -3.3174679122       -0.4798405226
 H          1.3402149647        1.5371862863        0.3221412291
