  17
        -32.83903939
 C          4.5264045056       -0.7140449165       -0.0005524055
 C          3.5673526902        0.2087466011       -0.0009423963
 C          2.1546253075       -0.0636126157       -0.0002051520
 C          1.4847386532       -1.2641019647        0.0002172956
 C          0.0920925250       -1.1312632875        0.0006885685
 C         -0.3273575267        0.1780538773        0.0007309874
 C         -1.6518933984        0.7294246176        0.0010615920
 C         -2.7882153742        0.0410231140        0.0000749699
 F         -2.9185998210       -1.2811530670       -0.0014148482
 F         -3.9924078296        0.6054630247        0.0003857216
 S          1.0311160318        1.2601049407        0.0001850965
 H          5.5658100230       -0.4379852596       -0.0012817052
 H          4.3091651182       -1.7678999836        0.0005322865
 H          3.8304108237        1.2585578879       -0.0018915444
 H          1.9843977820       -2.2154717510        0.0001757474
 H         -0.5839229601       -1.9664764715        0.0011248355
 H         -1.7415350013        1.8050705103        0.0020589446
