  21
        -39.41665354
 C         -4.3535449082       -1.3594281285        0.0557197035
 C         -3.0336661118       -1.4818624974       -0.0247574307
 C         -2.0595773393       -0.3976409588       -0.0185652918
 C         -2.4248143837        0.9521014152       -0.0200819055
 C         -1.4622795255        1.9369805031       -0.0130669602
 C         -0.1082166533        1.6013899937       -0.0042235670
 C          0.8440253374        2.6438107937        0.0026875308
 N          1.6008303924        3.5059826563        0.0081146294
 C          0.2899564622        0.2492364156       -0.0044992987
 C          1.7127871912       -0.0508476060        0.0036530582
 C          2.2998495752       -1.2394412079        0.0050645716
 F          1.7241299231       -2.4350542765       -0.0012400479
 F          3.6176744923       -1.3976482166        0.0132763773
 C         -0.7032371106       -0.7240688491       -0.0135290489
 H         -4.9939093341       -2.2243283752        0.0459275139
 H         -4.8511707380       -0.4084236824        0.1382034899
 H         -2.6017208622       -2.4722394751       -0.0959372462
 H         -3.4657022069        1.2323648497       -0.0313522713
 H         -1.7443106502        2.9797314242       -0.0152080097
 H          2.3851496027        0.7960702272        0.0097340525
 H         -0.4287947618       -1.7666765418       -0.0144580415
