21
 energy: -34.450015620753 gnorm: 0.000073016938 xtb: 6.4.1 (23d549d)
C        -4.28201293410000    1.10000465450000    0.01848196300000
C        -2.95657915150000    1.20411603000000   -0.00255510910000
C        -2.00528480890000    0.10800325220000   -0.00407177450000
C        -2.33827533970000   -1.23057796430000   -0.00749055420000
C        -1.38103045050000   -2.25268538400000   -0.00766348660000
C        -0.02352118650000   -2.00805291430000   -0.00445815300000
C         1.00793874210000   -3.02908226990000   -0.00346247450000
C         0.81728257280000   -4.34483698310000    0.01941884030000
C         0.37195211150000   -0.64020391160000   -0.00333975550000
N         1.62882255850000   -0.21222147070000   -0.00196311090000
Se        1.64067062180000    1.53654766750000   -0.00034711330000
N        -0.10511985020000    1.63921353260000   -0.00146673190000
C        -0.61447268300000    0.41305953460000   -0.00308690760000
H        -4.90862248580000    1.97490797320000    0.01855093100000
H        -4.79442466260000    0.15315299280000    0.03748752070000
H        -2.49427475850000    2.18189832860000   -0.01806329170000
H        -3.37963984010000   -1.51387274670000   -0.01132176160000
H        -1.73188670130000   -3.27326559290000   -0.01174695220000
H         2.01383588410000   -2.63182364860000   -0.02104680050000
H        -0.16108064850000   -4.79411149610000    0.04059126800000
H         1.64924981730000   -5.02743373360000    0.01928287430000
