  37
        -57.02764858
 C         -6.0825608162       -1.1068599937        0.2435909667
 C         -5.7736022645        0.1341771091       -0.1094594110
 C         -4.4037744378        0.6230520553       -0.2336384193
 C         -4.1573861374        1.9610596390       -0.5574434303
 C         -2.8470247267        2.3962094824       -0.6572091235
 C         -1.8228900093        1.4940123495       -0.4347715827
 C         -2.1599078633        0.1747870556       -0.1221163065
 C         -1.1029526749       -0.8208539895        0.1117428808
 C         -1.4118702242       -2.1738646484        0.2656340855
 C         -0.3744991944       -3.0660981400        0.4641859215
 C          0.9244828453       -2.5882704770        0.5180158519
 C          1.1366608206       -1.2159164025        0.3691477342
 C          2.4920912845       -0.6345455034        0.4265430149
 C          3.4719609842       -1.1617469587        1.2703221094
 C          4.7215905472       -0.5655250448        1.2788432768
 C          4.9571164261        0.5238213986        0.4606928988
 C          3.9154328713        0.9951367574       -0.3445199214
 C          4.0336148175        2.1416472736       -1.2404814267
 C          5.1028238736        2.9097386635       -1.4051751555
 N          2.7190218990        0.4150556592       -0.3482571027
 N          0.1420578431       -0.3656180236        0.1638187526
 N         -3.4152834259       -0.2421585206       -0.0266230943
 H         -7.1022982217       -1.4405526563        0.3305862398
 H         -5.3063380271       -1.8208749300        0.4570019597
 H         -6.5476545907        0.8604355613       -0.3214436392
 H         -4.9819451462        2.6383951114       -0.7235996465
 H         -2.6294280468        3.4255999836       -0.9055612141
 H         -0.7824577735        1.7670011791       -0.4954816259
 H         -2.4410385853       -2.4886397477        0.2178018216
 H         -0.5716784003       -4.1235146873        0.5730422728
 H          1.7559762171       -3.2634649395        0.6497994694
 H          3.2546463464       -1.9983084772        1.9160708667
 H          5.5034848421       -0.9464037807        1.9211555192
 H          5.9242566645        0.9999864000        0.4496907566
 H          3.1265344962        2.3387017050       -1.7952114147
 H          6.0250127202        2.7523734849       -0.8713447983
 H          5.0944662614        3.7396235072       -2.0909837720
