  49
        -65.99821620
 C         -5.9994649388       -0.6312954632        0.0487024671
 C         -4.8867841385       -1.2852569942        0.3630382094
 C         -3.5211655171       -0.8135195935        0.1936602579
 C         -3.1928392455        0.4098360782       -0.3899058012
 C         -1.8798104794        0.8104098167       -0.5237571830
 C         -0.8254691783        0.0203122340       -0.0618274813
 C         -1.1562258712       -1.2090667195        0.5147082431
 C         -2.4683902272       -1.6199336087        0.6293101469
 S          0.1181824847       -2.2544255397        1.1689944212
 C          1.4189048139       -1.8152937033        0.0459236747
 C          2.3766933130       -2.7634904412       -0.2467546427
 C          3.4561526661       -2.4620820834       -1.0782873084
 C          4.5054812638       -3.4177062267       -1.3971110752
 C          4.6145303856       -4.6610859045       -0.9426644335
 C          3.5066189299       -1.1795262125       -1.6238516569
 C          2.5364013304       -0.2374477864       -1.3485399566
 C          1.4763289200       -0.5233085273       -0.4871976432
 N          0.5018949955        0.4225942003       -0.1832075614
 C          0.8222034510        1.8348480578       -0.2084893055
 C          0.3196550510        2.5240905149        1.0641393327
 C          0.8502109645        3.9504771522        1.2073562057
 C          0.4079899426        4.9185265072        0.1070461262
 C         -1.1052917862        5.0937383657       -0.0303786290
 C         -1.7591403492        5.6695761835        1.2198657131
 H         -6.9693125098       -1.0686775024        0.2119983251
 H         -5.9954455938        0.3564751961       -0.3790843281
 H         -4.9665370125       -2.2754608711        0.7950809554
 H         -3.9720457486        1.0596487790       -0.7559976700
 H         -1.6700140758        1.7519816852       -1.0060417220
 H         -2.6722046911       -2.5756460004        1.0894197636
 H          2.2815098799       -3.7395078373        0.2012053651
 H          5.2602603971       -3.0408376922       -2.0771902139
 H          3.9037451867       -5.0981398184       -0.2629637722
 H          5.4331765604       -5.2940895642       -1.2389470005
 H          4.3185624644       -0.9159992450       -2.2864546124
 H          2.6004246891        0.7315066174       -1.8192475558
 H          0.4186110031        2.3223889646       -1.1035902877
 H          1.9091630259        1.9270878181       -0.2320601392
 H          0.6621681159        1.9375921057        1.9205085646
 H         -0.7697108631        2.5255137185        1.0891807637
 H          1.9430710554        3.9210180813        1.2153862955
 H          0.5310811165        4.3403598479        2.1751100459
 H          0.8121973366        4.5862498164       -0.8516697808
 H          0.8509919095        5.8945673525        0.3210438026
 H         -1.5728131967        4.1382456340       -0.2733958260
 H         -1.2923061709        5.7686268869       -0.8695852327
 H         -1.6933165813        4.9737876318        2.0522187304
 H         -2.8111526721        5.8742224002        1.0341781385
 H         -1.2750546885        6.6003183096        1.5080302832
