  23
        -38.06807494
 C         -1.4123385938        3.4083684847        0.0599223572
 C         -2.1163301935        2.2883199601       -0.0471969155
 C         -1.5950791761        0.9252681447       -0.0304324036
 C         -2.4990125305       -0.1380003886       -0.0138526957
 C         -2.0675961441       -1.4552632271        0.0043191903
 C         -3.0484774562       -2.5877602446        0.0438134169
 C         -0.7047164869       -1.7107495229        0.0027026869
 C          0.2255923657       -0.6702747291       -0.0167339186
 C          1.6378782502       -1.0230974505       -0.0206678388
 C          2.6915218398       -0.2214193050       -0.0000660946
 F          2.7147986708        1.1064331205        0.0289187657
 F          3.9470161066       -0.6707709328       -0.0037150857
 C         -0.2315790585        0.6445366955       -0.0347321771
 H         -1.8913241123        4.3722806609        0.0401727621
 H         -0.3422369299        3.4182159349        0.1749754233
 H         -3.1931257584        2.3541028504       -0.1480474011
 H         -3.5596446845        0.0720863053       -0.0134079172
 H         -4.0345816998       -2.2604659044       -0.2756584345
 H         -3.1302384404       -2.9735901334        1.0602758443
 H         -2.7222139184       -3.4035969636       -0.5977656489
 H         -0.3571919024       -2.7339792780        0.0149128132
 H          1.8695914133       -2.0785611210       -0.0382069160
 H          0.4725305207        1.4574537472       -0.0616346066
