  56
        -64.41382840
 C          0.6001398787       -3.4502996005       -0.0786593989
 C          0.5185468102       -2.5524037982        0.8885651876
 C          0.0359307355       -1.1718941418        0.7119775132
 C         -1.1224197201       -0.8012867633        1.3830837322
 C         -1.6901799900        0.4597857380        1.2684030470
 C         -3.0141335108        0.7237866200        1.9332322507
 C         -4.1307497762       -0.2325269137        1.4881095362
 C         -4.7054517371        0.0741448403        0.1036514273
 C         -3.7533071965       -0.1416463876       -1.0732252874
 C         -3.3173321079       -1.5922307852       -1.2606181316
 C         -2.3639436714       -1.7343377356       -2.4403632599
 C         -1.0179297394        1.4153715517        0.4981457669
 C         -1.4547706450        2.8095962124        0.3531833464
 C         -1.7589673552        3.6224039169        1.3536682374
 C          0.1412641459        1.0399913811       -0.1778212063
 C          0.6788377348       -0.2335500089       -0.1002043728
 C          1.9757756197       -0.5331256630       -0.7968464686
 C          3.1414882994       -0.4031014417        0.1899595067
 C          4.4916706764       -0.7803314636       -0.4187465662
 C          4.9351556608        0.0865514518       -1.5996177374
 C          5.0442881532        1.5819064341       -1.2977653041
 C          6.0768713671        1.9039535475       -0.2241254016
 H          0.9306133927       -4.4587469325        0.1066484971
 H          0.3253691295       -3.2164604242       -1.0942355648
 H          0.7594342835       -2.8306150698        1.9086296756
 H         -1.6058275595       -1.5380885015        2.0108282729
 H         -3.3371842301        1.7453030930        1.7339798327
 H         -2.8852845175        0.6165921494        3.0148078045
 H         -4.9485591818       -0.1473651818        2.2091534787
 H         -3.7795961242       -1.2635593470        1.5197420466
 H         -5.0395348620        1.1152614158        0.0901211263
 H         -5.5884960239       -0.5544776538       -0.0435716733
 H         -2.8683550156        0.4809636232       -0.9477486239
 H         -4.2607602721        0.1892901706       -1.9838626725
 H         -4.1977119372       -2.2197837436       -1.4203783884
 H         -2.8094518889       -1.9452843736       -0.3625561068
 H         -2.8314344482       -1.3843261130       -3.3585962655
 H         -2.0761972242       -2.7745039138       -2.5771684266
 H         -1.4645694235       -1.1467184267       -2.2659993260
 H         -1.4555907509        3.1877311022       -0.6628832273
 H         -1.7187849175        3.3017128568        2.3814716606
 H         -2.0379507893        4.6490625880        1.1843081457
 H          0.6463289135        1.7836557157       -0.7804014764
 H          2.1104963648        0.1696680942       -1.6200328668
 H          1.9722289678       -1.5438508872       -1.2040775898
 H          2.9498129563       -1.0664517247        1.0374023516
 H          3.1734952188        0.6168861817        0.5770019907
 H          4.4423365198       -1.8180947156       -0.7594617867
 H          5.2505312716       -0.7333799739        0.3647903285
 H          4.2391775705       -0.0530280590       -2.4293791452
 H          5.9118039963       -0.2730978339       -1.9344800078
 H          4.0713107022        1.9709659224       -0.9934798431
 H          5.3243508677        2.0947602403       -2.2216765871
 H          5.7784840817        1.4985614399        0.7391842410
 H          6.1875169296        2.9809723815       -0.1176065121
 H          7.0452907853        1.4849078377       -0.4897787038
