  36
        -61.85428986
 F          5.6467047786       -0.3104841264        0.1160035148
 C          4.3138066573       -0.2956271038        0.0618391136
 F          3.9070593344        0.9632781856       -0.0728224565
 C          3.5747635707       -1.3930934640        0.1298809789
 C          2.1275857391       -1.5171869610        0.0789600143
 C          1.5884863847       -2.8159929521        0.0599022217
 C          0.2302759986       -3.0369752196        0.0239125504
 C          1.2796918926       -0.4121725196        0.0541266722
 C         -0.0856611085       -0.6336488697       -0.0047563924
 C         -0.6253026456       -1.9424911669       -0.0059386831
 C         -2.0510138290       -1.7962473208       -0.0261533412
 C         -3.1051097622       -2.7013979313       -0.0526249437
 C         -4.3946182291       -2.2122423122       -0.0912501046
 C         -4.6405024624       -0.8404366535       -0.1182202623
 C         -3.6100034070        0.0790782883       -0.0923866428
 C         -2.3109988977       -0.4055469891       -0.0300996963
 N         -1.1153083439        0.2832676603       -0.0172544880
 C         -0.9706926651        1.6798969379       -0.0123810565
 C         -0.1362925206        2.2996486258       -0.9374505195
 C          0.0080410615        3.6746040366       -0.9225608520
 C         -0.6834851042        4.4397147705        0.0017606453
 C         -1.5188702607        3.8241562510        0.9189902614
 C         -1.6608439039        2.4488063116        0.9195653435
 H          4.1342395379       -2.3124975315        0.2265309446
 H          2.2644897912       -3.6578336397        0.0794384612
 H         -0.1656755374       -4.0410143327        0.0227820304
 H          1.6670852412        0.5918638630        0.0953555194
 H         -2.9130044746       -3.7636591105       -0.0472188032
 H         -5.2287068923       -2.8976626171       -0.1101581699
 H         -5.6604858168       -0.4884030186       -0.1641786500
 H         -3.8101619917        1.1391489736       -0.1310268477
 H          0.3853073266        1.7021363146       -1.6698897281
 H          0.6588873654        4.1503360340       -1.6406934364
 H         -0.5711526788        5.5132862694        0.0079083499
 H         -2.0564476166        4.4166977700        1.6443784592
 H         -2.2931654697        1.9626043074        1.6474995912
