  46
        -51.58826127
 C         -4.1171998045        1.2952149470       -0.7383820923
 C         -2.8918391572        0.5231369790       -0.3864732715
 C         -1.5961577600        0.9378849116       -0.4653914515
 N         -0.7528047454       -0.0647890134       -0.0537646751
 Si         0.9999017403        0.0770391671        0.1040943689
 C          1.3411662091        1.0108447949        1.7566028327
 C          0.7783422141        2.4311986170        1.7384988272
 C          0.7477736684        0.2474090300        2.9410155987
 C          1.6956150439       -1.7100081521        0.2318438757
 C          1.5360559635       -2.5089171051       -1.0602173274
 C          3.1542532398       -1.7419621607        0.6847854371
 C          1.5761758791        1.1315112304       -1.3990070878
 C          3.0965968125        1.2489801342       -1.4857730328
 C          1.0133252974        0.6406517257       -2.7325227027
 C         -1.5474071074       -1.1275643694        0.2966598221
 C         -2.8600464728       -0.8144162108        0.1060093730
 C         -4.0470392466       -1.6811918364        0.3535783813
 H         -3.8517921001        2.2910057453       -1.0852141261
 H         -4.7722925666        1.3892078646        0.1278106636
 H         -4.6766344062        0.7882463322       -1.5246804584
 H         -1.2057005775        1.8820188836       -0.7885302851
 H          2.4214252133        1.0878142529        1.9158424874
 H         -0.2967596138        2.4094160415        1.5762646706
 H          1.2360760311        3.0247718347        0.9512373726
 H          0.9678605744        2.9276919062        2.6892966329
 H         -0.3268909176        0.1351272702        2.8160693332
 H          0.9281592949        0.7843010103        3.8713637550
 H          1.1867533316       -0.7428217493        3.0306978160
 H          1.1146217072       -2.2244744345        1.0043219317
 H          2.1935903239       -2.1193890611       -1.8332882928
 H          0.5120953640       -2.4638874733       -1.4223317564
 H          1.7971994368       -3.5540512960       -0.8967419050
 H          3.7994423220       -1.2607747062       -0.0449348980
 H          3.4900573321       -2.7716213016        0.8030966498
 H          3.2796618558       -1.2334251563        1.6367992772
 H          1.1871208208        2.1434761318       -1.2431843043
 H          3.5421371478        0.2870117685       -1.7263060597
 H          3.5160576697        1.5972775834       -0.5451588706
 H          3.3803931811        1.9523192154       -2.2677013645
 H          1.4271525981       -0.3283310682       -2.9960774634
 H          1.2638842182        1.3412044063       -3.5283801945
 H         -0.0684078104        0.5475135151       -2.6865130820
 H         -1.1166701013       -2.0390982850        0.6583317316
 H         -3.7354689215       -2.6537954290        0.7266263648
 H         -4.6146814895       -1.8244699058       -0.5659479920
 H         -4.7110253101       -1.2216380155        1.0858409561
