  28
        -37.10664005
 C          0.8009178544        1.8355656664       -1.4198057752
 C          1.4892665069        0.8271244327       -0.5496152752
 C          0.7402114137       -0.0348273067        0.2544805486
 C         -0.7402123408        0.0348915045        0.2544672867
 C         -1.4892138643       -0.8270160015       -0.5497138358
 C         -0.8008546821       -1.8354899975       -1.4198533056
 C         -2.8733448654       -0.7342269152       -0.5222205096
 C         -3.5112458366        0.1904619306        0.2863007342
 C         -2.7654326322        1.0398839164        1.0839415389
 C         -1.3844649729        0.9601628389        1.0645176610
 C          1.3844004875       -0.9602033940        1.0644537719
 C          2.7653625570       -1.0399991257        1.0838859266
 C          3.5112301816       -0.1905342226        0.2863426978
 C          2.8733897329        0.7342569223       -0.5221100894
 H          0.0222007451        1.3632291543       -2.0170544770
 H          1.5107157539        2.3216870996       -2.0848532000
 H          0.3217716469        2.5987421181       -0.8067780247
 H         -0.0200121743       -1.3638256137       -2.0148246435
 H         -1.5101618191       -2.3194703530       -2.0869783561
 H         -0.3244616634       -2.6003714081       -0.8067947794
 H         -3.4602693433       -1.3965260442       -1.1434062252
 H         -4.5900047239        0.2465400311        0.2931952952
 H         -3.2567474483        1.7624252378        1.7189762022
 H         -0.7921949886        1.6172503245        1.6860209170
 H          0.7920837549       -1.6173046737        1.6858939521
 H          3.2566269584       -1.7627011073        1.7187776050
 H          4.5899808529       -0.2468059635        0.2930951771
 H          3.4603587652        1.3965323941       -1.1432784545
