  25
        -41.23983607
 C         -4.7551606485        0.0699477840        0.3672888044
 C         -3.5539437699        0.6366201757        0.3573941194
 C         -2.2801095563       -0.0302424397        0.1257862686
 C         -2.1564030143       -1.4035997134       -0.1040370833
 C         -0.9249158224       -1.9849564825       -0.3198071282
 C          0.2489572692       -1.2255807963       -0.3192531228
 C          1.5597996037       -1.8204694643       -0.5582769363
 C          1.8950955053       -3.0618393278       -0.2279253829
 C          0.1161541547        0.1435325003       -0.0955010339
 S          1.5535677323        1.2170856551       -0.0108291131
 N          2.4185373791        0.6521127699        1.3030312037
 O          2.3834205316        1.0342728849       -1.1624594708
 O          1.1147314341        2.5346301595        0.3307954769
 C         -1.1076408494        0.7296002234        0.1285495323
 H         -5.6432238307        0.6506168166        0.5471141437
 H         -4.9083913009       -0.9819157322        0.1972028555
 H         -3.4722991045        1.7017724767        0.5322250185
 H         -3.0376880687       -2.0256481474       -0.1182445371
 H         -0.8620945058       -3.0447273418       -0.5148264090
 H          2.2762112161       -1.1632699587       -1.0321163941
 H          1.2127745530       -3.7307908533        0.2711221131
 H          2.8767143499       -3.4517506065       -0.4347781932
 H          2.7643124451       -0.2876361936        1.2026737514
 H          1.9546436042        0.8129407361        2.1804748901
 H         -1.1308930713        1.7944895150        0.3030214623
