  26
        -32.77152174
 C          4.2013288658       -0.2393903281        0.2195597687
 C          3.1355047806        0.5381650236        0.0673666301
 C          1.7474955222        0.1076038566       -0.0275313550
 C          1.3499541660       -1.2266961987        0.0655648673
 C          0.0191101489       -1.5659286245       -0.0327307016
 C         -0.9719841747       -0.6023481957       -0.2267060966
 C         -2.3714366330       -1.0089783242       -0.3330059648
 C         -2.9142768041       -2.0299122079        0.3172652787
 C         -0.5870259306        0.7427148790       -0.3306853199
 C         -1.5986950598        1.8439095170       -0.4885439602
 C         -2.3572930607        2.0854021767        0.8174823540
 C          0.7546561329        1.0675654656       -0.2233553988
 H          5.1929238675        0.1757019107        0.2792428777
 H          4.1363732846       -1.3115750232        0.2896718642
 H          3.2776694947        1.6105822811        0.0008183257
 H          2.0845399514       -2.0030330473        0.2128060821
 H         -0.2688181181       -2.6055990078        0.0211994988
 H         -2.9919555880       -0.4158684511       -0.9925049745
 H         -2.3527294226       -2.6302475513        1.0135156573
 H         -3.9512097033       -2.2924490472        0.1926421686
 H         -2.3103846441        1.5969664009       -1.2796779148
 H         -1.0872676949        2.7636827142       -0.7801688586
 H         -2.8877543670        1.1861289105        1.1222599119
 H         -3.0777858356        2.8912512325        0.6954321422
 H         -1.6631657944        2.3577436622        1.6096808958
 H          1.0453764964        2.1074942106       -0.2956555518
