  48
        -77.72781276
 F          6.7930204219       -3.2589488474       -0.0894321385
 C          5.5856404861       -2.7182736673        0.0852150344
 F          4.8317262774       -3.5689845428        0.7750662362
 C          5.2546673508       -1.5219068882       -0.3801227491
 C          3.9891222948       -0.8229053499       -0.2633541884
 C          3.8705620782        0.4378593487       -0.8566715083
 C          2.6984274680        1.1553522427       -0.7872395413
 C          1.5897528643        0.6370357198       -0.1122944012
 N          0.4015385089        1.3562178822       -0.0374382607
 C         -0.8304116116        0.6885405425       -0.0272420808
 C         -1.8758811583        1.1460860474        0.7738852337
 C         -3.0917963163        0.4956517474        0.7727342072
 C         -3.3014747722       -0.6361578179       -0.0134995663
 C         -4.5954117279       -1.3311834969       -0.0060807316
 C         -5.7888852779       -0.6124325554        0.0154981565
 C         -7.0058879884       -1.2677605606        0.0192085783
 C         -7.0522846271       -2.6517662561        0.0062447862
 C         -5.8724961508       -3.3767019771       -0.0125661423
 C         -4.6545418587       -2.7232375435       -0.0210273961
 C         -2.2501674643       -1.0904534320       -0.8083073915
 C         -1.0358327559       -0.4374692199       -0.8237692967
 C          0.4229786894        2.7566098918        0.0289286655
 C          1.3939831735        3.4150274539        0.7822143462
 C          1.4072755494        4.7949574993        0.8445066237
 C          0.4529034622        5.5371793286        0.1682192843
 C         -0.5175876730        4.8869121987       -0.5762271266
 C         -0.5344878099        3.5076475509       -0.6513256612
 C          1.7032327022       -0.6214099360        0.4852787492
 C          2.8772254504       -1.3367782149        0.4101410188
 H          6.0398283635       -1.0093588129       -0.9175032751
 H          4.7133829269        0.8537228359       -1.3893331662
 H          2.6269791131        2.1221405222       -1.2630725687
 H         -1.7241750227        2.0126716158        1.4007940733
 H         -3.8836300573        0.8524260637        1.4147394213
 H         -5.7600886396        0.4676115276        0.0078305286
 H         -7.9230625721       -0.6967037896        0.0300126060
 H         -8.0035495471       -3.1630718930        0.0109611696
 H         -5.9022520525       -4.4567181590       -0.0184005810
 H         -3.7378416791       -3.2949879701       -0.0179294305
 H         -2.3973309312       -1.9494966137       -1.4461254240
 H         -0.2374108783       -0.7914302557       -1.4595877439
 H          2.1314807065        2.8372968226        1.3200267581
 H          2.1631446606        5.2935287971        1.4331706092
 H          0.4648433278        6.6150989210        0.2219607671
 H         -1.2630965728        5.4579364846       -1.1096798399
 H         -1.2867742278        3.0018673402       -1.2387478649
 H          0.8592619197       -1.0307852025        1.0202371853
 H          2.9292657454       -2.3000534357        0.8901169551
