  24
        -33.67098669
 C          3.9790221965        0.1774208447        0.0291507175
 C          2.8911742377        0.9351075208       -0.0341847283
 C          1.5049915364        0.4797052540       -0.0166914712
 C          1.1489393998       -0.8682132208        0.0027277599
 C         -0.1837601344       -1.2631068300        0.0175527561
 C         -0.4881861514       -2.6902254329        0.0320273707
 C         -1.6865019842       -3.2554925279       -0.0493696758
 C         -1.1851611379       -0.2887607966        0.0196234271
 C         -0.8487523919        1.0559036926        0.0006770999
 O         -1.7469235403        2.0833928824        0.0005994040
 C         -3.1188275624        1.7776583929        0.0162351018
 C          0.4926809750        1.4325486931       -0.0199798129
 H          4.9642036888        0.6112389837        0.0108626919
 H          3.9409610955       -0.8957144098        0.1035009309
 H          3.0060322626        2.0100851210       -0.1017042567
 H          1.9167128019       -1.6261494238       -0.0002406546
 H          0.3826548544       -3.3298869493        0.1106635728
 H         -2.5980973486       -2.6900221765       -0.1396916515
 H         -1.8013881661       -4.3257937441       -0.0327403336
 H         -2.2171751457       -0.5958237027        0.0407730475
 H         -3.6346536588        2.7367046263        0.0088201713
 H         -3.3986448705        1.2251159477        0.9194560794
 H         -3.4138702971        1.2030778474       -0.8681812393
 H          0.7248183934        2.4863739877       -0.0344413622
