  24
        -33.67098669
 C          3.9790221965        0.1774208447        0.0291507175
 C          2.8911742377        0.9351075208       -0.0341847283
 C          1.5049915364        0.4797052540       -0.0166914712
 C          1.1489393998       -0.8682132208        0.0027277599
 C         -0.1837601344       -1.2631068300        0.0175527561
 C         -0.4881861514       -2.6902254329        0.0320273707
 C         -1.6865019842       -3.2554925279       -0.0493696758
 C         -1.1851611379       -0.2887607966        0.0196234271
 C         -0.8487523919        1.0559036926        0.0006770999
 O         -1.7469235403        2.0833928824        0.0005994040
 C         -3.1188275624        1.7776583929        0.0162351018
 C          0.4926809750        1.4325486931       -0.0199798129
 H          4.9642036888        0.6112389837        0.0108626919
 H          3.9409610955       -0.8957144098        0.1035009309
 H          3.0060322626        2.0100851210       -0.1017042567
 H          1.9167128019       -1.6261494238       -0.0002406546
 H          0.3826548544       -3.3298869493        0.1106635728
 H         -2.5980973486       -2.6900221765       -0.1396916515
 H         -1.8013881661       -4.3257937441       -0.0327403336
 H         -2.2171751457       -0.5958237027        0.0407730475
 H         -3.6346536588        2.7367046263        0.0088201713
 H         -3.3986448705        1.2251159477        0.9194560794
 H         -3.4138702971        1.2030778474       -0.8681812393
 H          0.7248183934        2.4863739877       -0.0344413622
  24
        -33.67090943
 C          3.8217991791        0.3939897275       -0.0923285674
 C          2.6734089790        1.0429919190        0.0552420820
 C          1.3339495158        0.4641544103        0.0353837825
 C          1.1060844523       -0.9066073817        0.0309676315
 C         -0.1878766714       -1.4263762162        0.0097828782
 C         -0.3590017383       -2.8757102313        0.0077569546
 C         -1.5068481144       -3.5413062824       -0.0189851214
 C         -1.2622142188       -0.5442659391       -0.0075859849
 C         -1.0540883217        0.8323668381       -0.0000204718
 O         -2.1850433992        1.5964185294       -0.0162619452
 C         -2.0514954139        2.9957498563       -0.0126013869
 C          0.2396303595        1.3328587702        0.0248914816
 H          4.7648158784        0.9128000259       -0.0664849108
 H          3.8748687632       -0.6695037807       -0.2498329373
 H          2.6970071428        2.1176061197        0.1943762837
 H          1.9416653622       -1.5888218143        0.0527312805
 H          0.5687554629       -3.4349999009        0.0300468940
 H         -2.4645880170       -3.0510757769       -0.0426063902
 H         -1.5291287955       -4.6177527151       -0.0185581942
 H         -2.2799729878       -0.8968090340       -0.0240706780
 H         -3.0668884170        3.3889084735       -0.0309345409
 H         -1.5114009594        3.3516734205       -0.8963549656
 H         -1.5443220428        3.3503116453        0.8909876333
 H          0.4233035485        2.3963888381        0.0315056576
