  17
        -25.20014150
 C          1.5883191416        2.0524290496       -0.3197881835
 C          1.6434457750        0.8946513578        0.3233249570
 C          0.6976117387       -0.1982716580        0.1759559031
 C          1.0410123230       -1.5197493190        0.2734972950
 O          0.0001379008       -2.3214324020        0.0000088592
 C         -1.0408856802       -1.5199186581       -0.2733601565
 C         -0.6977367757       -0.1983728182       -0.1756659091
 C         -1.6438173828        0.8943194106       -0.3228756393
 C         -1.5881327438        2.0527715597        0.3189887886
 H          2.3473829628        2.8044980000       -0.1882669622
 H          0.7891119544        2.2877083203       -1.0014448416
 H          2.4803463804        0.6761276152        0.9756844144
 H          1.9785999906       -1.9880689886        0.5011857749
 H         -1.9783844957       -1.9883882466       -0.5011093493
 H         -2.4814420554        0.6750519821       -0.9740443664
 H         -0.7881603876        2.2889439483        0.9994360137
 H         -2.3474554022        2.8045818108        0.1875004277
