  21
        -45.27776070
 C          3.7625816475       -1.0010855966        0.0753308714
 C          2.6137683139       -1.6122826244       -0.2068055005
 C          1.2736801169       -1.0907842595       -0.0906960951
 S         -0.0047858121       -2.2633254017       -0.1886498491
 C         -1.2539522202       -1.0642107108       -0.0829621064
 C         -2.6361569241       -1.4790026098       -0.0308047895
 C         -3.6213404315       -0.8091215555        0.5580238488
 C         -0.6901936951        0.1848361938       -0.0114145379
 N         -1.4606135105        1.4105324302        0.0708001693
 O         -2.2565967258        1.6188294897       -0.8082963978
 O         -1.2569837686        2.1013223515        1.0401561569
 C          0.7320962668        0.1788050399        0.0021148063
 N          1.4375992919        1.4302876733       -0.0307928711
 O          2.4714488370        1.5336244316        0.5851022951
 O          0.9230528330        2.3018937568       -0.6955772243
 H          4.6956504864       -1.5180747093       -0.0683275723
 H          3.8163000601        0.0030054205        0.4565001360
 H          2.6308236657       -2.6421869461       -0.5435930772
 H         -2.8296589958       -2.4406676971       -0.4869334810
 H         -3.4760668095        0.1253981770        1.0712029761
 H         -4.6255255098       -1.1936264927        0.5532731269
