24
 energy: -46.372343065912 gnorm: 0.000087806316 xtb: 6.4.1 (23d549d)
C        -4.64560704970000   -1.50444257580000    0.05144280100000
C        -3.35744648500000   -1.82134318480000    0.00554943050000
C        -2.23111468130000   -0.89390822270000   -0.00822109990000
C        -2.38440657780000    0.49107072190000   -0.03806896100000
C        -1.28936871250000    1.34770068600000   -0.04418595430000
C        -1.51881970840000    2.78895045800000   -0.06456124230000
C        -0.61791683340000    3.73451439560000    0.17124729520000
C         0.00041362080000    0.80671953820000   -0.03560532570000
C         0.15255691420000   -0.56370672140000   -0.01094157370000
O         1.40397620480000   -1.21737161120000   -0.00321976570000
C         2.52014674380000   -0.52673856490000   -0.00796912880000
F         2.67498917240000    0.29489787920000    1.04816132880000
F         3.54911505210000   -1.36898988800000    0.01529842810000
F         2.69073469100000    0.25443247670000   -1.09186355470000
C        -0.93916355360000   -1.41563321440000    0.00455345740000
H        -5.40644697820000   -2.26562865700000    0.05933741690000
H        -4.99851998880000   -0.48822688890000    0.08548292200000
H        -3.07519566650000   -2.86616718990000   -0.02072285570000
H        -3.37503105450000    0.91792929460000   -0.05315613040000
H        -2.54077897130000    3.07708819360000   -0.27691627640000
H         0.40849816370000    3.51852641250000    0.41290856800000
H        -0.88330039790000    4.77715370030000    0.14109086260000
H         0.84919898840000    1.46850129070000   -0.06194798150000
H        -0.76641762600000   -2.47952717500000    0.02348693790000
