  33
        -42.36651371
 C         -3.8218570801        2.2605907885       -0.4137969704
 C         -2.5363910657        2.2851199217       -0.0719615583
 C         -1.6997221931        1.1273558549        0.0775637312
 C         -0.3701609438        1.1135193403        0.4158299665
 C          0.2001883700       -0.1706937476        0.4875861888
 C          1.6365475385       -0.4908116535        0.8128832267
 C          2.3581154061       -1.1173878377       -0.3942340248
 C          2.6911022986       -0.0783406091       -1.4575583720
 C          3.6090824411        0.9871260496       -0.8715342439
 C          2.8992760492        1.6902275384        0.2787027140
 C          2.4543815184        0.6927086922        1.3484538878
 C         -0.7299720359       -1.1586902998        0.2209958319
 C         -0.5573444929       -2.5855903537        0.2715426861
 C         -1.4447801677       -3.4753196920       -0.1666628190
 S         -2.2893454965       -0.4859473685       -0.1593324888
 H         -4.3999016903        3.1624237787       -0.5094853457
 H         -4.3318976384        1.3314303383       -0.6079677301
 H         -2.0390552943        3.2283489118        0.1188352143
 H          0.1585713866        2.0246004139        0.6257797930
 H          1.6125523755       -1.2470872894        1.6100161053
 H          1.7385231578       -1.9023410277       -0.8302499486
 H          3.2870610198       -1.5758201871       -0.0449311002
 H          1.7697462205        0.3869212724       -1.8154578317
 H          3.1736057994       -0.5668755296       -2.3068183737
 H          3.8840022130        1.7147805749       -1.6379345480
 H          4.5269532715        0.5169844979       -0.5100667756
 H          2.0436612687        2.2293791437       -0.1278659066
 H          3.5647287579        2.4257426268        0.7375631348
 H          1.8850194274        1.2079355461        2.1253618165
 H          3.3518010518        0.2829533391        1.8203082278
 H          0.3663272661       -2.9275959045        0.7200398294
 H         -2.3714737896       -3.1687774510       -0.6227309166
 H         -1.2708689314       -4.5336323119       -0.0852422117
