  26
        -48.71392021
 C          0.7581152808       -4.1950727195        0.0667122542
 C          1.3847078691       -3.1253578151       -0.4030987665
 C          0.8812680519       -1.7557344506       -0.2895883637
 C         -0.4648861492       -1.5119130515       -0.4140761296
 C         -1.0137827722       -0.2156383759       -0.3471232781
 C         -2.4584008326       -0.0568746812       -0.4855119912
 C         -3.2121396726        0.8287244038        0.1468211815
 F         -2.8322084836        1.7085377952        1.0566956946
 F         -4.5300103587        0.9128674296       -0.0222362429
 C         -0.1435016634        0.8392135365       -0.1909877936
 F         -0.6098808307        2.1040353877       -0.2156817217
 C          1.2482829838        0.6582307409       -0.0495883890
 C          2.1159617790        1.7553624939        0.1331322707
 C          3.4577231358        1.5569333330        0.2976334464
 C          3.9797125043        0.2563798188        0.2926028551
 C          3.1592566348       -0.8237910825        0.1095399798
 C          1.7724401412       -0.6616518892       -0.0829871485
 H          1.1604388672       -5.1856825530       -0.0575406274
 H         -0.1683126882       -4.1212189970        0.6112436498
 H          2.3290747815       -3.2435390167       -0.9170757998
 H         -1.1389062227       -2.3378155557       -0.5836603312
 H         -2.9691072901       -0.7453865480       -1.1418083125
 H          1.6956756226        2.7495279109        0.1489814163
 H          4.1197167236        2.3977378919        0.4397228573
 H          5.0397912446        0.1100708491        0.4383720862
 H          3.5777631114       -1.8179304974        0.1253163667
