  23
        -33.97641944
 C          3.6665319387        0.1711670411        0.6077654061
 C          2.7332574656        0.8043445972       -0.0934357844
 C          1.3206880186        0.4932028718       -0.1027024727
 S          0.2412438888        1.8547293707       -0.3623669539
 C         -1.1528755940        0.8479872686       -0.1244407787
 C         -2.4803865074        1.2448713579       -0.1730907544
 C         -3.4562242879        0.2930832389        0.0366432237
 C         -3.1114808811       -1.0348916460        0.2862650316
 C         -1.7930261335       -1.4288924910        0.3306436041
 C         -0.7826513695       -0.4846639934        0.1326442562
 C          0.6417974727       -0.6732985331        0.1295927021
 C          1.2179781948       -2.0039348973        0.2932298395
 C          2.1823918390       -2.5125702787       -0.4590161594
 H          4.6937202497        0.4907203360        0.5830894493
 H          3.4377417038       -0.6803862208        1.2245699971
 H          2.9990542184        1.6816885003       -0.6709805447
 H         -2.7342489237        2.2745062464       -0.3724280055
 H         -4.4970037130        0.5779018644        0.0043284589
 H         -3.8930325921       -1.7633184942        0.4439640196
 H         -1.5365080547       -2.4608819989        0.5161981215
 H          0.7485579510       -2.6120729879        1.0572435949
 H          2.6489024042       -1.9412907493       -1.2437896956
 H          2.5428505406       -3.5164235028       -0.3131031257
