  28
        -41.87227590
 C          4.0658778148       -2.0610873309        0.0807951464
 C          4.1720104506       -0.7396791688        0.0274665602
 C          3.0262824470        0.1642108793       -0.0074652274
 C          3.2200791761        1.5486957304       -0.0496593004
 C          2.1129208824        2.3785843019       -0.0788666540
 C          0.8513231312        1.8125220097       -0.0657176207
 C          0.7484346629        0.4200138437       -0.0247660436
 C         -0.5708968044       -0.2308707417       -0.0110411483
 C         -0.6789321927       -1.6226537589       -0.0084739246
 C         -1.9433940000       -2.1832766128        0.0032009062
 C         -3.0500898926       -1.3529279640        0.0142738800
 C         -2.8533329041        0.0313881028        0.0125762515
 C         -3.9397449228        1.0066161794        0.0256839828
 C         -5.2393500074        0.7433218631        0.0683875032
 N         -1.6339792541        0.5634931424       -0.0018931824
 N          1.8106667851       -0.3739878574        0.0031985256
 H          4.9286974947       -2.7042248378        0.1064023478
 H          3.0971696591       -2.5290452713        0.1007445989
 H          5.1424524935       -0.2607407879        0.0085030966
 H          4.2201457930        1.9559718749       -0.0584645976
 H          2.2336953000        3.4524119194       -0.1112909050
 H         -0.0476959581        2.4055936959       -0.0862420088
 H          0.2168782886       -2.2205365929       -0.0168635167
 H         -2.0672222315       -3.2573092298        0.0035184911
 H         -4.0452895549       -1.7673910359        0.0225249156
 H         -3.5925597211        2.0307235616        0.0005499407
 H         -5.6328380722       -0.2586745730        0.0981008333
 H         -5.9696517651        1.5343155270        0.0765136069
