20
 energy: -27.549855530477 gnorm: 0.000045742695 xtb: 6.4.1 (23d549d)
C         3.81521736260000   -0.31906044950000    0.04785391230000
C         2.79323029360000    0.53239598580000    0.00126314420000
C         1.40346470570000    0.16314215030000   -0.00516301330000
C         0.81567687940000   -1.07640372690000    0.02321486540000
C        -0.59060599220000   -1.05802114800000    0.00964163010000
C        -1.39619843710000   -2.31568264990000    0.01644127800000
C        -1.10026068190000    0.22513426950000   -0.02813081650000
C        -2.44349156770000    0.73911449710000   -0.05539961280000
C        -3.58212644080000    0.06895814040000    0.11082282380000
S         0.18761726870000    1.39857358510000   -0.05645538370000
H         4.83283736470000    0.02914336170000    0.04941475860000
H         3.67239265330000   -1.38497730500000    0.08584762260000
H         2.98212401500000    1.59764106770000   -0.03513982830000
H         1.38237887410000   -1.99029623520000    0.05129681440000
H        -0.74114487230000   -3.17449515010000   -0.11032076250000
H        -2.12545839020000   -2.30985105580000   -0.79215668630000
H        -1.92853476880000   -2.42734188300000    0.96092518830000
H        -2.49246629910000    1.80908881570000   -0.22090913130000
H        -3.62540182300000   -0.98597563590000    0.30364200310000
H        -4.52716733450000    0.58252556250000    0.06666490790000
