19
 energy: -35.168999757822 gnorm: 0.000036997998 xtb: 6.4.1 (23d549d)
C         4.55964081040000   -0.97350590030000   -0.01020513100000
C         3.80524743620000    0.11966669960000    0.00163510650000
C         2.35180751740000    0.16315239180000    0.00291539780000
C         1.53024498750000   -0.96724772240000    0.00636754170000
C         0.15790529970000   -0.82146420030000    0.00577475500000
C        -0.38501776040000    0.46696435450000    0.00172665980000
C        -1.80855983380000    0.76471280910000   -0.00054485490000
C        -2.82391572480000   -0.08523510290000   -0.00132395510000
F        -2.77212450880000   -1.41217283450000    0.00011137580000
F        -4.09781850860000    0.29374205350000   -0.00395764960000
N         0.39359695010000    1.55145416850000   -0.00026794540000
C         1.69749595360000    1.40152678040000    0.00055035470000
H         5.63400821510000   -0.91049730790000   -0.01114872060000
H         4.14670175270000   -1.96769848610000   -0.02026411230000
H         4.28209293100000    1.09216577630000    0.00991411860000
H         1.96074139320000   -1.95703972060000    0.01035764980000
H        -0.47783527720000   -1.69115191490000    0.00866452300000
H        -2.05219519740000    1.81640434470000   -0.00228283760000
H         2.26877753810000    2.32210013730000   -0.00119385910000
