  23
        -42.29110989
 C          1.9829538459        2.6683121868       -0.3641985309
 C          0.7182445845        2.6752491206       -0.7643659831
 C         -0.2955579043        1.6707329407       -0.4525115180
 C         -1.6104932858        2.0965227689       -0.2739742987
 C         -2.6172672613        1.2159547416        0.0671573962
 C         -2.3576701077       -0.1401815223        0.2108413078
 C         -3.4208203438       -1.1351048249        0.5508488177
 C         -1.0499612666       -0.5597242964        0.0028616810
 F         -0.8001662658       -1.8860269133        0.0661230512
 C         -0.0032362241        0.3032029235       -0.3118917629
 C          1.3353222966       -0.2246113083       -0.5767205771
 C          1.9490494834       -1.1481727057        0.1438451238
 F          1.5287226710       -1.6889734439        1.2769599814
 F          3.1571301689       -1.6254753516       -0.1505967088
 H          2.6549260573        3.4684563072       -0.6239983757
 H          2.3881056336        1.8894459619        0.2581878663
 H          0.3493968941        3.5184967364       -1.3358391719
 H         -1.8375003662        3.1461672547       -0.3886508003
 H         -3.6234064014        1.5790075995        0.2137939960
 H         -4.3690590563       -0.6385552497        0.7357738672
 H         -3.1353808807       -1.7030665431        1.4351076145
 H         -3.5455260752       -1.8455971394       -0.2658199387
 H          1.8620399764        0.1628982057       -1.4360189448
