  20
        -34.89425346
 C         -0.3399947022        2.8592305514       -0.5365359859
 C         -1.2861754539        2.1745134137        0.0920264394
 C         -1.4181519445        0.7179683141        0.1089237147
 C         -2.7005149104        0.1806067146        0.0059672869
 C         -2.9058470471       -1.1832544820       -0.0539243908
 C         -1.8208375488       -2.0432627109        0.0084381070
 C         -0.5450602752       -1.5328476079        0.1443509593
 C         -0.3208352889       -0.1570059950        0.1973663254
 C          1.0197579070        0.3687915088        0.4302010007
 C          2.1615010445       -0.1922303112        0.0676030959
 F          2.3295384144       -1.3104833221       -0.6316944924
 F          3.3577942069        0.3292406303        0.3424238739
 H         -0.3273323087        3.9360103421       -0.5304886882
 H          0.4371758054        2.3762738440       -1.1046818962
 H         -2.0839346100        2.7079604909        0.5950413170
 H         -3.5440320075        0.8540989852       -0.0480226542
 H         -3.9074076852       -1.5761456176       -0.1451920204
 H         -1.9704023319       -3.1114842294       -0.0343348256
 H          0.2895968662       -2.2106656957        0.2293103261
 H          1.0987921710        1.3089115050        0.9565862264
  20
        -34.89414744
 C         -1.7151216407        3.1941463828        0.0974987117
 C         -0.9350279369        2.2059025274       -0.3178711645
 C         -1.2255806523        0.7843542551       -0.1187700768
 C         -2.5377058394        0.3268975712       -0.2069904758
 C         -2.8398641275       -1.0145604782       -0.0717717660
 C         -1.8243525763       -1.9290348557        0.1544897862
 C         -0.5158295058       -1.4958674717        0.2500907568
 C         -0.1963719221       -0.1457487203        0.1168726293
 C          1.1765596513        0.3235523995        0.2788783070
 C          2.2820682841       -0.3665282188        0.0486670530
 F          2.3850748767       -1.6091350433       -0.4089467086
 F          3.5060778367        0.1265610013        0.2366062865
 H         -1.4673117178        4.2256410815       -0.0856057767
 H         -2.6205239421        3.0123700967        0.6523328251
 H         -0.0211467315        2.4340502832       -0.8510020809
 H         -3.3256333738        1.0369677977       -0.4087258900
 H         -3.8642162803       -1.3475216585       -0.1480368635
 H         -2.0511881092       -2.9791032877        0.2604367469
 H          0.2649004831       -2.2127415620        0.4489038672
 H          1.3219318217        1.3353077176        0.6263148069
  20
        -34.89188087
 C          0.0253839839        2.5440598796        0.1564540774
 C         -0.5987989681        1.6987251724       -0.6490520199
 C         -1.0865877717        0.3742442134       -0.2507020188
 C         -2.3901418704        0.0262837215       -0.6003642720
 C         -2.9588631908       -1.1574588272       -0.1725855459
 C         -2.2265797081       -2.0238049484        0.6228282313
 C         -0.9240362361       -1.7084718258        0.9570162968
 C         -0.3322050547       -0.5278432320        0.5122257360
 C          1.0822632272       -0.3190722697        0.8380470330
 C          2.0125837722        0.0708647504       -0.0143346851
 F          1.8427721813        0.3784620063       -1.2942929974
 F          3.3006821838        0.2040504351        0.3005766931
 H          0.3241457621        3.5237689722       -0.1743487793
 H          0.2542051158        2.2935799200        1.1795562195
 H         -0.8473853055        1.9971190193       -1.6593878777
 H         -2.9673459186        0.7138791837       -1.2017103162
 H         -3.9729085174       -1.4015634162       -0.4517575112
 H         -2.6660067784       -2.9453392046        0.9737373541
 H         -0.3407725252       -2.3932629602        1.5555610464
 H          1.4133547921       -0.5835746775        1.8313620488
