  17
        -32.84035010
 C          4.3088995254        0.7111516178       -0.0021505922
 C          3.5813203428       -0.4024261520       -0.0020877145
 C          2.1453510679       -0.4489848751        0.0001642349
 C          1.3543159918       -1.5727549612        0.0014376267
 C         -0.0182610099       -1.2981582814        0.0025449308
 C         -0.2958865838        0.0473653524        0.0021213318
 C         -1.5546137174        0.7360961792        0.0018304287
 C         -2.7574807359        0.1721253818       -0.0004078171
 F         -3.0275319128       -1.1287141470       -0.0025142128
 F         -3.8951258631        0.8610423337       -0.0009894658
 S          1.1676489520        0.9858143948        0.0007960870
 H          5.3838383943        0.6844485218       -0.0043422268
 H          3.8456451681        1.6842485387       -0.0001526375
 H          4.0623368562       -1.3723706382       -0.0039988616
 H          1.7604945098       -2.5687988241        0.0014704811
 H         -0.7772820724       -2.0585542205        0.0035804760
 H         -1.5292669795        1.8151391210        0.0030207156
