  23
        -28.82016127
 C          3.1166507446        1.1197810214        0.1050544666
 N          2.2552935982       -0.0163921364       -0.1090555653
 C          0.8770263395        0.0947249089       -0.0318635293
 C          0.2329259490        1.3298076477       -0.0463173575
 C         -1.1476395798        1.4132573265       -0.0299370244
 C         -1.9308534479        0.2723777285        0.0068178016
 C         -3.4288031222        0.3435630946        0.0368400177
 C         -1.2854524342       -0.9595534674        0.0196241919
 C          0.0913796943       -1.0724500566       -0.0019556494
 C          0.7389660577       -2.4281360403        0.0020035246
 H          4.1515632174        0.7894634498        0.0345866663
 H          2.9660974580        1.5965738159        1.0831494125
 H          2.9441374023        1.8638840327       -0.6737118154
 H          2.6152615467       -0.8784540715        0.2701168074
 H          0.8098215880        2.2405607198       -0.0705617401
 H         -1.6162966139        2.3873741236       -0.0419172185
 H         -3.7692443131        1.3724633745       -0.0504105234
 H         -3.8115203883       -0.0685473161        0.9707806009
 H         -3.8564358828       -0.2348276878       -0.7814626182
 H         -1.8827435764       -1.8612236002        0.0454068712
 H         -0.0179725268       -3.2074526640       -0.0330280869
 H          1.3336919777       -2.5779802601        0.9056252014
 H          1.3941526076       -2.5450736403       -0.8612242625
