  25
        -44.38929939
 C          2.2516250873       -3.4421132912       -0.0722244615
 C          1.0253886244       -2.9460296701       -0.1948609510
 C          0.5971660328       -1.5585716617       -0.0809775606
 C         -0.7618848847       -1.2728928027       -0.1429902534
 C         -1.2831725951        0.0153046164       -0.0392662009
 C         -2.7407964472        0.2526926726       -0.0134326705
 O         -3.2555531087        1.3415567589       -0.1497300602
 O         -3.5376418136       -0.8058597225        0.2110957151
 C         -0.3935489068        1.1176683473        0.0645050611
 N         -0.8539950984        2.3784127553        0.1191407854
 C          0.9986614635        0.8562992644        0.1279028877
 C          1.9983279354        1.9237732693        0.2517141783
 C          2.0081504609        3.0592550647       -0.4335893809
 C          1.4435224827       -0.4537055419        0.0848896563
 F          2.7766237575       -0.6409572096        0.1658996160
 H          2.4245492935       -4.4996437944       -0.1791784808
 H          3.1178747247       -2.8417839408        0.1348924882
 H          0.2100149870       -3.6308633007       -0.3995845800
 H         -1.4231571534       -2.1147801384       -0.3068953588
 H         -3.0442599494       -1.6185668070        0.3804432121
 H         -1.8577378696        2.5093955949        0.1165341876
 H         -0.2299477445        3.1192552979        0.3876345697
 H          2.8106801840        1.7051553024        0.9339523933
 H          1.2692510830        3.2909145506       -1.1828456866
 H          2.7942061224        3.7826581380       -0.2992023634
