  48
        -55.80278899
 C          3.6794879664        0.7654058829        2.7037619154
 C          3.6240205298        0.1655286636        1.5206945199
 C          2.4499312718        0.1050651558        0.6758326213
 C          1.1430941052        0.1847256518        1.0818295968
 N          0.2996851695       -0.0133565084        0.0248587550
 Si        -1.4727976464       -0.0224739492       -0.0051834837
 C         -2.2296701925       -0.0146571980        1.7668321516
 C         -1.7933086730       -1.2017562008        2.6249866035
 C         -2.0058564672        1.2947111815        2.5233549625
 C         -2.0047125617        1.6231853723       -0.8577035561
 C         -1.3465158976        1.8769680808       -2.2130477715
 C         -3.5237316748        1.7423277567       -0.9811839251
 C         -2.0054237711       -1.6799825870       -0.8466437046
 C         -2.2484653673       -1.5832295193       -2.3522988023
 C         -1.0001133355       -2.8032547272       -0.5783457275
 C          1.0871058476       -0.2259333664       -1.0745591222
 C          2.4129414032       -0.1544832308       -0.7358555970
 C          3.5103704579       -0.2793629394       -1.6724575509
 C          4.7106424016        0.2730827069       -1.5434613772
 H          4.5742957025        0.7556595893        3.3024499478
 H          2.8361825685        1.2957207201        3.1131710924
 H          4.4984198734       -0.3415994231        1.1334314601
 H          0.7599719360        0.3397101798        2.0684344663
 H         -3.3130032047       -0.1134604862        1.6288603111
 H         -0.7142492086       -1.2261811199        2.7504676947
 H         -2.1063810312       -2.1390107579        2.1731969496
 H         -2.2471282481       -1.1388115826        3.6135833615
 H         -0.9485758977        1.4899699474        2.6774599735
 H         -2.4851182790        1.2505644378        3.5008754043
 H         -2.4285459003        2.1356629946        1.9806401494
 H         -1.6693348022        2.4328313794       -0.1985459468
 H         -1.6489206097        1.1321732536       -2.9435104199
 H         -0.2634416885        1.8590046710       -2.1246134431
 H         -1.6380141534        2.8556482624       -2.5925350322
 H         -3.9220083681        0.9744476549       -1.6393051637
 H         -3.7960999381        2.7125952000       -1.3940741406
 H         -4.0042106175        1.6389427149       -0.0119767706
 H         -2.9572676313       -1.9772673857       -0.3914848072
 H         -1.3356863471       -1.3140154315       -2.8775239544
 H         -3.0115534006       -0.8452632376       -2.5830072686
 H         -2.5829773071       -2.5448651051       -2.7400477904
 H         -0.0505626054       -2.5915819846       -1.0632268177
 H         -1.3781299870       -3.7471899701       -0.9686727599
 H         -0.8112097207       -2.9241834614        0.4843210480
 H          0.6504244410       -0.3910043807       -2.0391342206
 H          3.2791801924       -0.8512807586       -2.5643333393
 H          4.9688672288        0.8912666734       -0.7011639350
 H          5.4736688921        0.1406331501       -2.2921092204
