  32
        -39.10415871
 C         -2.8628487444        2.3624074945       -0.0597219640
 C         -2.5504419388        1.1569789574       -0.5165925635
 C         -1.2433932296        0.5202326838       -0.3669786448
 C         -0.0873863646        1.2972321363       -0.3791413904
 C          1.1802365448        0.7580216008       -0.2470133578
 C          2.3683587515        1.6818477867       -0.2610862285
 C          2.6876326806        2.1753248246        1.1520210060
 C          1.3101174441       -0.6286555344       -0.0975313828
 C          2.6178771860       -1.2660285666        0.0574146733
 C          2.9284569934       -2.4718020523       -0.3994804066
 C          0.1541455892       -1.4067687162       -0.0911752541
 C         -1.1136112127       -0.8686728401       -0.2254971389
 C         -2.3115539434       -1.7735554273       -0.1438027229
 C         -3.0227798384       -1.6249262681        1.2021323357
 H         -3.8409890379        2.7878033046       -0.2082171445
 H         -2.1632306550        2.9638552044        0.4964662112
 H         -3.3041557110        0.5805637879       -1.0376022726
 H         -0.1845151373        2.3642787204       -0.5213197458
 H          2.1440494758        2.5440577954       -0.8932010803
 H          3.2390926302        1.1786077256       -0.6836163474
 H          1.8340970624        2.7081067370        1.5654545929
 H          3.5428037862        2.8476582398        1.1371920059
 H          2.9143610534        1.3400510471        1.8109269372
 H          3.3704572236       -0.6932181808        0.5822685140
 H          2.2279112836       -3.0725683464       -0.9552076919
 H          3.9056727882       -2.8989401974       -0.2499226163
 H          0.2528821553       -2.4740514408        0.0475494878
 H         -1.9887377663       -2.8097482623       -0.2649860466
 H         -3.0137447355       -1.5497305644       -0.9502696728
 H         -2.3417352310       -1.8687459990        2.0147175662
 H         -3.8801381819       -2.2924356731        1.2558056283
 H         -3.3672429433       -0.6025237041        1.3400986493
