24
 energy: -34.122253763530 gnorm: 0.000124630214 xtb: 6.4.1 (23d549d)
C         4.10664898650000   -1.01474574410000   -0.11351385810000
C         3.43188520980000    0.11540298550000   -0.28969464800000
C         2.00322786100000    0.32182405390000   -0.09655079010000
C         1.46721296850000    1.59589329310000   -0.29276401600000
C         0.12153901680000    1.83327269630000   -0.11852765720000
C        -0.75191597720000    0.81356764040000    0.25946252090000
C        -2.17610117040000    1.08486621350000    0.44035657100000
C        -2.86789757050000    1.96779751870000   -0.26696744570000
C        -0.22061048350000   -0.46774352870000    0.46512982730000
C        -1.11872790050000   -1.62016703220000    0.85474117590000
C        -2.13192131870000   -1.83262410150000   -0.14981432620000
N        -2.92458081800000   -1.99860912890000   -0.95616647960000
C         1.12979668440000   -0.69861181790000    0.27934785840000
H         5.16832417980000   -1.06312293490000   -0.28405991280000
H         3.64189280540000   -1.93236089740000    0.20395551310000
H         3.97024215700000    0.99980125940000   -0.60866210830000
H         2.12001918390000    2.40707437810000   -0.58233923790000
H        -0.26846366090000    2.83006545660000   -0.25860673720000
H        -2.68482450640000    0.50982776320000    1.20352107400000
H        -2.42223144600000    2.53804788360000   -1.06444129230000
H        -3.91664463050000    2.13236721160000   -0.09085659920000
H        -1.61440427210000   -1.42177082440000    1.81124095880000
H        -0.53488079600000   -2.53933369900000    0.95481159500000
H         1.51484336400000   -1.69638654020000    0.42948697620000
