  24
        -40.18159364
 C         -5.5834546277        1.0787501033        0.1264467709
 C         -4.9182218701       -0.0652621305        0.0082498257
 C         -3.4732224089       -0.2355350165       -0.0145194583
 C         -2.5733830501        0.8291941438        0.0883277947
 C         -1.2133510891        0.6190783389        0.0630386294
 C         -0.6826384383       -0.6695005505       -0.0666074679
 C          0.7357168330       -0.9483508659       -0.0974349013
 C          1.7359093340       -0.0555994191       -0.0114841580
 C          3.1198147341       -0.4400882758       -0.0512963738
 C          4.1257644328        0.4237155386        0.0318794602
 F          4.0090761704        1.7420374836        0.1609401478
 F          5.4133207658        0.0914587395       -0.0020349982
 C         -1.5841637824       -1.7348005213       -0.1702331727
 C         -2.9441926100       -1.5225026337       -0.1448120040
 H         -6.6596671645        1.1005016075        0.1333604821
 H         -5.0940629468        2.0327946835        0.2203897995
 H         -5.4791886750       -0.9880212705       -0.0822730562
 H         -2.9456202128        1.8368432507        0.1897586009
 H         -0.5509770316        1.4668518918        0.1453492102
 H          0.9940572542       -1.9957369924       -0.2010676856
 H          1.5398311225        1.0009897899        0.0928185347
 H          3.3709852219       -1.4845602757       -0.1536897597
 H         -1.2022769568       -2.7410848876       -0.2717475338
 H         -3.6174756841       -2.3644536434       -0.2266638834
