  28
        -37.10624419
 C          0.8511629892        1.5152648715       -1.7256699581
 C          1.4988897167        0.6806376424       -0.6612894838
 C          0.7405784928       -0.0236647873        0.2752644442
 C         -0.7405822043        0.0236407718        0.2752521089
 C         -1.4988749216       -0.6806049518       -0.6613588771
 C         -0.8511410661       -1.5151475316       -1.7258027964
 C         -2.8846733707       -0.6029919134       -0.5955687204
 C         -3.5157247911        0.1515964138        0.3758968975
 C         -2.7608270486        0.8386563568        1.3112520467
 C         -1.3814990671        0.7682849168        1.2600159526
 C          1.3814774897       -0.7683573347        1.2600025256
 C          2.7608048302       -0.8387291054        1.3112607753
 C          3.5157209415       -0.1516232309        0.3759537751
 C          2.8846866319        0.6030225365       -0.5954806489
 H         -0.1755224786        1.7576859829       -1.4627766149
 H          0.8442442199        0.9765926127       -2.6736541525
 H          1.4069926478        2.4392874235       -1.8734685095
 H          0.1755882395       -1.7574583789       -1.4629874183
 H         -0.8443607445       -0.9764730990       -2.6737882765
 H         -1.4068746258       -2.4392330569       -1.8735660380
 H         -3.4752295222       -1.1479297517       -1.3189717488
 H         -4.5944729615        0.1988456864        0.4072980928
 H         -3.2449822036        1.4248799482        2.0784353630
 H         -0.7819896729        1.3009933583        1.9848793253
 H          0.7819517399       -1.3011636454        1.9847783647
 H          3.2449444559       -1.4250358252        2.0783884356
 H          4.5944677132       -0.1988606576        0.4073828830
 H          3.4752596093        1.1480522728       -1.3188000915
