  82
        -97.86654296
 C         -3.5133742106        5.1084696036        0.6002882077
 C         -2.2354800571        4.7506413474        0.6598527650
 C         -1.7161062418        3.3911595146        0.6911805057
 C         -2.5278450922        2.2973352009        0.9822652412
 C         -2.0352794056        1.0035845284        1.0272341536
 O         -2.7788799226       -0.1019896837        1.3313005955
 C         -4.1855965386       -0.0077946366        1.3779314319
 C         -4.8381005455        0.1947710933        0.0057561295
 C         -4.8655850241       -1.0744115752       -0.8462732141
 C         -3.4725387099       -1.5752751434       -1.2206922256
 C         -3.5417932986       -2.8003098980       -2.1284493967
 C         -2.1660486397       -3.3089441144       -2.5620791200
 C         -1.2698598641       -3.7897538180       -1.4192229153
 C         -1.8603911547       -4.9693686515       -0.6487673866
 C         -0.8720957663       -5.6013706213        0.3323686812
 C         -0.5379400853       -4.6936081795        1.5102594346
 C         -0.6725350179        0.7810540479        0.7542028507
 C         -0.1351767683       -0.5722705323        0.8062156950
 C          0.9609960514       -0.9969784877        0.1885194117
 C          0.1410103065        1.8742444703        0.4694992968
 C         -0.3465762291        3.1701861792        0.4424699419
 O          0.4137668741        4.2813705760        0.2036822650
 C          1.7936265597        4.1409263794       -0.0547842921
 C          2.0835737598        3.7200751181       -1.5005579614
 C          3.5208622261        3.2316072848       -1.6942263506
 C          3.7103222253        1.7937236369       -1.2144126097
 C          5.1377061999        1.2858985462       -1.4060775096
 C          5.2607468809       -0.2202867791       -1.1670451450
 C          4.9581728293       -0.6397256411        0.2703124100
 C          5.0807922803       -2.1498716500        0.4582405679
 C          4.7143513658       -2.5815265026        1.8762270092
 C          4.8000545346       -4.0928030082        2.0502168795
 H         -3.8015473930        6.1453979838        0.5801054188
 H         -4.3212147909        4.3972645656        0.5579259636
 H         -1.4711136838        5.5150419003        0.6658556564
 H         -3.5647608451        2.4896792709        1.2015035853
 H         -4.4929183345        0.7890531747        2.0679715200
 H         -4.5060336346       -0.9634763924        1.8033166203
 H         -4.2990132851        0.9769158153       -0.5328699615
 H         -5.8625515092        0.5378782001        0.1669580163
 H         -5.4295175684       -0.8650803977       -1.7593136736
 H         -5.3988888388       -1.8598093673       -0.3042293061
 H         -2.9272959072       -1.8219207361       -0.3113539306
 H         -2.9250995407       -0.7775560773       -1.7293897425
 H         -4.1107812375       -2.5435121118       -3.0265699585
 H         -4.0853825470       -3.5989356987       -1.6204152178
 H         -1.6479605643       -2.5057253766       -3.0924827819
 H         -2.3083456313       -4.1316955658       -3.2682274384
 H         -1.0742132132       -2.9592904946       -0.7419079935
 H         -0.3114894832       -4.0962679145       -1.8475747982
 H         -2.1782641112       -5.7318457538       -1.3651716175
 H         -2.7427145798       -4.6446902159       -0.0947852176
 H          0.0471551619       -5.8622820023       -0.1978430739
 H         -1.3049450539       -6.5292670361        0.7151359893
 H         -0.0345674567       -3.7913882550        1.1754813945
 H          0.1160730578       -5.2074208635        2.2117784146
 H         -1.4452751423       -4.4049936952        2.0369058214
 H         -0.7221262119       -1.2626391029        1.3969482740
 H          1.5525493422       -0.3589808068       -0.4455136628
 H          1.3057276986       -2.0130066465        0.2796040198
 H          1.1835678275        1.6789693911        0.2884656554
 H          2.2493218266        3.4455401263        0.6594109781
 H          2.2115727667        5.1347867658        0.1319667975
 H          1.8880444389        4.5742186945       -2.1511459207
 H          1.3876932884        2.9281528261       -1.7866954892
 H          4.2066509172        3.8941125926       -1.1612306787
 H          3.7716558089        3.2819538391       -2.7559235397
 H          3.0288070047        1.1475220895       -1.7742461861
 H          3.4525764828        1.7275467953       -0.1567162256
 H          5.8089732647        1.8204986246       -0.7302754282
 H          5.4565785216        1.5032229565       -2.4286203648
 H          6.2764751532       -0.5348368534       -1.4190792373
 H          4.5790998154       -0.7434255671       -1.8426331493
 H          3.9438471834       -0.3415192129        0.5394870969
 H          5.6462639575       -0.1304989503        0.9493969145
 H          6.1030270548       -2.4649578681        0.2353224485
 H          4.4191031788       -2.6532315234       -0.2510939090
 H          3.6986592195       -2.2478323496        2.1021625807
 H          5.3869093301       -2.0951937871        2.5866430125
 H          4.1178875410       -4.5944301472        1.3670180632
 H          4.5378970808       -4.3773641778        3.0666390709
 H          5.8088837416       -4.4444617427        1.8445273465
  82
        -97.86649166
 C         -2.8859608560        3.0063494116        2.8378783072
 C         -1.9175516518        2.9955966301        1.9284458767
 C         -1.9361561996        2.3093045760        0.6454616224
 C         -3.0971736674        1.7635127537        0.1054529334
 C         -3.1156921770        1.0862034229       -1.1046761717
 O         -4.2304031930        0.4912833986       -1.6196702491
 C         -5.3462923405        0.2266627170       -0.7975042392
 C         -5.1060928516       -0.7649725099        0.3458263958
 C         -4.7072787398       -2.1722725224       -0.1062069080
 C         -3.2875259073       -2.2970298746       -0.6656144214
 C         -2.2053307318       -1.9341160040        0.3494629367
 C         -0.7987764214       -2.1269965507       -0.2166099248
 C          0.2657098276       -1.3979185374        0.6038721689
 C          0.4455404808       -1.9665487482        2.0095984542
 C          1.4409178898       -1.1672807730        2.8524142118
 C          0.8944438056        0.1860156781        3.2937115007
 C         -1.9257068785        0.9930214464       -1.8535814814
 C         -1.8102503752        0.3447136420       -3.1518491473
 C         -2.7864468961       -0.0079231521       -3.9814570502
 C         -0.7622930699        1.5415784719       -1.3112789420
 C         -0.7369707236        2.1769143337       -0.0823036070
 O          0.3948857563        2.6785738554        0.4949718759
 C          1.6414790626        2.3958786051       -0.1051254477
 C          2.7416647586        2.8660664105        0.8427620809
 C          4.1201223620        2.3627531005        0.4126976891
 C          4.3367008650        0.8885396675        0.7525185321
 C          5.6474384731        0.3564106649        0.1788693883
 C          5.9690144290       -1.0722166295        0.6238668045
 C          4.9067347951       -2.1202899559        0.2837215376
 C          4.6211605680       -2.2397303409       -1.2115621228
 C          3.5992395827       -3.3303552449       -1.5393246263
 C          4.1327521814       -4.7420477020       -1.3262446468
 H         -2.7746527841        3.5454980967        3.7627895353
 H         -3.8186454267        2.4826398970        2.7115654354
 H         -0.9955288541        3.5222197757        2.1321197996
 H         -4.0130401503        1.8866988246        0.6593497042
 H         -6.0830665879       -0.1911771737       -1.4907779691
 H         -5.7567457891        1.1626174198       -0.3923900425
 H         -6.0451936592       -0.8311921853        0.9010945612
 H         -4.3487833670       -0.3738391194        1.0242989567
 H         -5.4150940848       -2.5115708661       -0.8665886601
 H         -4.8022880558       -2.8405396760        0.7541723022
 H         -3.1841807928       -1.6664708377       -1.5483705398
 H         -3.1386712057       -3.3325407227       -0.9837219026
 H         -2.3363116771       -2.5464647544        1.2443218631
 H         -2.3086667075       -0.8870962244        0.6385943448
 H         -0.7797241783       -1.7302887426       -1.2346271703
 H         -0.5613044743       -3.1921577485       -0.2711601140
 H         -0.0178681744       -0.3464438062        0.6694592931
 H          1.2222512699       -1.4552604498        0.0755977092
 H          0.7923702425       -3.0003411456        1.9290539034
 H         -0.5155821042       -1.9777479392        2.5253613914
 H          2.3625819228       -1.0199501787        2.2848888458
 H          1.6941334808       -1.7496574425        3.7421058384
 H          0.6730026997        0.8233129981        2.4424543496
 H          1.6194350980        0.6985415940        3.9230209988
 H         -0.0220896427        0.0573186012        3.8658027742
 H         -0.7848829481        0.1636204856       -3.4567556488
 H         -3.8228390861        0.1624828521       -3.7593342023
 H         -2.5634037015       -0.4783989793       -4.9251122343
 H          0.1429514833        1.4554221010       -1.8921766005
 H          1.7293238115        2.9147275781       -1.0703331519
 H          1.7291719821        1.3158834393       -0.2798064138
 H          2.5129199643        2.5032038023        1.8460137653
 H          2.7313395435        3.9566585632        0.8728870521
 H          4.8880559973        2.9568275784        0.9121049907
 H          4.2383872212        2.5115306386       -0.6636002718
 H          3.5082439611        0.3020143532        0.3557767315
 H          4.3408569645        0.7690333871        1.8384051126
 H          6.4653315471        1.0054407794        0.5027092204
 H          5.6106069828        0.4040451276       -0.9111042724
 H          6.1161307585       -1.0753143076        1.7071037742
 H          6.9147894669       -1.3698758751        0.1638621211
 H          3.9782894272       -1.8909130498        0.8098971186
 H          5.2606700514       -3.0821314458        0.6594586053
 H          5.5530968297       -2.4474838723       -1.7429081586
 H          4.2349040377       -1.2874364719       -1.5803550549
 H          3.3001746247       -3.2243851434       -2.5851922171
 H          2.7064492243       -3.1851293674       -0.9263066840
 H          5.0394982760       -4.8976579362       -1.9071481539
 H          3.3938398748       -5.4752630110       -1.6419191662
 H          4.3600483426       -4.9221829880       -0.2787998743
  82
        -97.86644187
 C         -0.0496100090        2.7153746297       -1.6494244389
 C         -0.4587725090        2.2708560976       -0.4661978559
 C         -0.3024994491        0.9395710611        0.1004228559
 C         -1.0543994846        0.6383788422        1.2351626486
 C         -1.0054788284       -0.5926588666        1.8682117263
 O         -1.6991258014       -0.8761878540        3.0143025275
 C         -3.0300616235       -0.4206861472        3.1597833115
 C         -4.0350402260       -1.5493530761        2.9007972850
 C         -3.9165244832       -2.1714344083        1.5084138609
 C         -4.1574395016       -1.1846900936        0.3677488243
 C         -4.2184059338       -1.9010029219       -0.9790687516
 C         -4.3896318792       -0.9480421949       -2.1628264775
 C         -3.1997163216       -0.0201417211       -2.4223056372
 C         -1.8733383432       -0.7293901348       -2.6929594981
 C         -1.8889473622       -1.6086981091       -3.9408560003
 C         -0.5077185996       -2.1831423877       -4.2318955570
 C         -0.1558151247       -1.5891720230        1.3538945067
 C         -0.1063973994       -2.8904293945        2.0049198956
 C          0.4225581777       -4.0042928004        1.5110359390
 C          0.6162050947       -1.2863882976        0.2341180231
 C          0.5666618820       -0.0541131805       -0.3978317369
 O          1.3362432295        0.2613020480       -1.4752802541
 C          2.3820693277       -0.6037240796       -1.8668905588
 C          3.3043308392        0.1403946160       -2.8342688179
 C          4.2968076740        1.0641021580       -2.1250971138
 C          3.6214659256        2.2845001052       -1.5021815641
 C          4.5378312040        3.1003588257       -0.5912085011
 C          5.0659130498        2.3483175321        0.6349115661
 C          4.0034234927        1.6251176632        1.4646960327
 C          2.9207606491        2.5443239889        2.0232970440
 C          1.9726412478        1.7880208326        2.9511578275
 C          0.8563663230        2.6818139769        3.4750781613
 H         -0.2428972531        3.7315257665       -1.9516399623
 H          0.4789681297        2.0966313807       -2.3488566384
 H         -1.0062742655        2.9525090722        0.1763039152
 H         -1.6858275046        1.4178852614        1.6372603913
 H         -3.2440535718        0.4221542602        2.4992015759
 H         -3.1279502582       -0.0795739580        4.1965217171
 H         -5.0387516104       -1.1427205283        3.0428425043
 H         -3.8758712692       -2.3310740698        3.6461085083
 H         -4.6458154776       -2.9825487152        1.4369525865
 H         -2.9241310120       -2.6135146473        1.3963278048
 H         -3.3492220608       -0.4536222804        0.3427304787
 H         -5.0962102265       -0.6501480069        0.5364852589
 H         -5.0620425191       -2.5966696508       -0.9705748490
 H         -3.3117102994       -2.4934929707       -1.1102398198
 H         -5.2742797807       -0.3292712509       -1.9893049764
 H         -4.5809028547       -1.5385858075       -3.0610522925
 H         -3.0622784628        0.6462039406       -1.5683728689
 H         -3.4430395028        0.6075112583       -3.2838706260
 H         -1.5932927682       -1.3312032096       -1.8263760937
 H         -1.1031648057        0.0355940635       -2.8127734139
 H         -2.2229791753       -1.0162439148       -4.7961139259
 H         -2.5944354429       -2.4307667165       -3.8082068754
 H          0.2128852264       -1.3823411028       -4.3855459084
 H         -0.5271771265       -2.8043115985       -5.1248536146
 H         -0.1698413505       -2.7945545113       -3.3970379365
 H         -0.5810228884       -2.9141988268        2.9763135369
 H          0.8887049351       -4.0539270935        0.5412315516
 H          0.4008117574       -4.9257360248        2.0671187442
 H          1.2734796467       -2.0520968080       -0.1431896276
 H          1.9594359369       -1.4902105466       -2.3612239704
 H          2.9575830226       -0.9328202196       -0.9912625801
 H          2.6887473986        0.7164248596       -3.5268179823
 H          3.8571497924       -0.6047087809       -3.4099615449
 H          5.0495487431        1.3960956460       -2.8445304265
 H          4.8120046654        0.4892049121       -1.3538799000
 H          2.7480743888        1.9678948184       -0.9372898314
 H          3.2646885762        2.9346365190       -2.3051887477
 H          3.9844223516        3.9797510249       -0.2554757473
 H          5.3964951925        3.4566672312       -1.1669986570
 H          5.5814176793        3.0687377359        1.2756060758
 H          5.8112953836        1.6156999224        0.3162790535
 H          4.5065828333        1.1288390257        2.2995599222
 H          3.5302329280        0.8449804462        0.8663713055
 H          2.3415394333        2.9742943108        1.2041567989
 H          3.3880607887        3.3662652140        2.5715638281
 H          2.5363899151        1.3803244117        3.7937744125
 H          1.5345375349        0.9469035065        2.4089121123
 H          1.2642953477        3.5007222948        4.0643120943
 H          0.1743697574        2.1113826707        4.1013631495
 H          0.2930545421        3.1045210170        2.6463547276
  82
        -97.86155814
 C         -0.3655292989        1.8351003958       -3.1103004838
 C         -0.9524840868        1.3272169632       -2.0325140348
 C         -1.0549802451        1.9223807625       -0.7081111705
 C         -2.0156547527        1.3970032305        0.1547577546
 C         -2.2296168057        1.8662939602        1.4412372234
 O         -3.1732161025        1.3512314348        2.2839359940
 C         -3.7923631383        0.1219511251        1.9669868677
 C         -2.8357384510       -1.0672355878        2.1087550667
 C         -3.3618714262       -2.3409359912        1.4460925877
 C         -3.2376480768       -2.3080412303       -0.0768954101
 C         -3.6124955761       -3.6447173501       -0.7124485882
 C         -3.6050015667       -3.6055765429       -2.2426256418
 C         -2.2622516061       -3.2275270129       -2.8716066728
 C         -1.1453458053       -4.2185011174       -2.5521324881
 C          0.1699179033       -3.8837402304       -3.2575107044
 C          0.8460385922       -2.6388703662       -2.6937665850
 C         -1.4359500642        2.9327081015        1.9085520768
 C         -1.5483446137        3.5426911606        3.2250660612
 C         -2.5188757917        3.3905349462        4.1195250230
 C         -0.4525052335        3.4362097137        1.0556204484
 C         -0.2374608255        2.9640704820       -0.2295465757
 O          0.7283781593        3.4500744947       -1.0628084510
 C          1.8257900483        4.1602473750       -0.5279092116
 C          2.7381328933        3.3264126745        0.3774517876
 C          3.5977978397        2.3135858588       -0.3813444698
 C          2.8133159742        1.1849317997       -1.0530117156
 C          2.0817755485        0.2451622116       -0.0931254846
 C          2.9814632339       -0.5426628859        0.8605080004
 C          3.9519579139       -1.4804245693        0.1456100083
 C          4.7070646874       -2.3740861508        1.1265599694
 C          5.6878848269       -3.3050336966        0.4178161716
 C          6.4364894886       -4.1969340563        1.4005294136
 H         -0.3618969068        1.2964658294       -4.0438676748
 H          0.1147202540        2.7955391216       -3.1044951867
 H         -1.4511629339        0.3674375328       -2.1180520776
 H         -2.6180184702        0.5888645703       -0.2271036008
 H         -4.2365825940        0.1576164047        0.9657483877
 H         -4.6083924538        0.0345833239        2.6901090813
 H         -2.6657101727       -1.2445423666        3.1724133171
 H         -1.8732696187       -0.8001885364        1.6657087615
 H         -4.4046419670       -2.4985567859        1.7310707866
 H         -2.7859850006       -3.1899683620        1.8212923562
 H         -2.2058359307       -2.0608269200       -0.3328910169
 H         -3.8869027168       -1.5326524718       -0.4897148782
 H         -4.6165069752       -3.9239002576       -0.3822754716
 H         -2.9293060498       -4.4187049057       -0.3588254429
 H         -4.3571823197       -2.8861604127       -2.5773910461
 H         -3.9038311200       -4.5887799208       -2.6148496872
 H         -1.9756110195       -2.2286465790       -2.5431541345
 H         -2.3937407138       -3.1867914665       -3.9561753625
 H         -1.4675918983       -5.2173916094       -2.8573878075
 H         -0.9662768569       -4.2418810103       -1.4758538453
 H         -0.0145710333       -3.7471080184       -4.3255148603
 H          0.8504278997       -4.7317297033       -3.1466750258
 H          0.2457928702       -1.7492080367       -2.8664604351
 H          1.8142399232       -2.4855532116       -3.1655162478
 H          1.0011019960       -2.7482956099       -1.6218799733
 H         -0.7301894786        4.2143940116        3.4626420657
 H         -3.3686737244        2.7582866629        3.9469696172
 H         -2.4838427686        3.9118068455        5.0622406445
 H          0.1555884414        4.2445673192        1.4325121310
 H          1.4811509508        5.0558489938        0.0065100629
 H          2.3822280763        4.4901677721       -1.4104267829
 H          2.1326237307        2.8114248144        1.1242001202
 H          3.3988554296        4.0192460650        0.9041110055
 H          4.3235494080        1.8880723894        0.3147030848
 H          4.1620673301        2.8460059721       -1.1518999544
 H          3.5056698945        0.6011815703       -1.6627644880
 H          2.0742240690        1.6182415866       -1.7271755989
 H          1.5077829282       -0.4614413480       -0.6970274064
 H          1.3618022127        0.8156449331        0.4972574063
 H          2.3404554552       -1.1371381284        1.5175647199
 H          3.5432612001        0.1437682312        1.4968968764
 H          4.6746480053       -0.8974406476       -0.4278751564
 H          3.3967951179       -2.1053563620       -0.5580406488
 H          3.9917518410       -2.9722639070        1.6965814833
 H          5.2532995847       -1.7493136875        1.8376757426
 H          6.4058855377       -2.7079071665       -0.1492883909
 H          5.1417511423       -3.9280546053       -0.2944150508
 H          7.0033214113       -3.5941686413        2.1069900040
 H          7.1284636448       -4.8512959760        0.8752741625
 H          5.7390411638       -4.8148101964        1.9622231206
  82
        -97.85992110
 C         -0.6280974142        4.8610795635       -1.8268473587
 C         -1.5706393726        3.9421822382       -1.6477923182
 C         -1.6947153032        2.9894733291       -0.5546720092
 C         -2.9142635453        2.3235358088       -0.4219900833
 C         -3.1725659146        1.3982367521        0.5763217859
 O         -4.3405477370        0.6999747840        0.6630128986
 C         -5.1846378635        0.6214522625       -0.4677439827
 C         -6.0316974884       -0.6493947665       -0.3785032779
 C         -5.2641755706       -1.9087963545       -0.7876415213
 C         -4.2725811601       -2.3739650648        0.2781992379
 C         -3.3063319045       -3.4489849530       -0.2203735455
 C         -2.3040304249       -2.9733472520       -1.2764257087
 C         -1.4430605206       -1.7771377938       -0.8642928533
 C         -0.5990228998       -1.9923425599        0.3919722643
 C          0.4484361103       -3.1016851672        0.2876373470
 C          1.5051093079       -2.8351528345       -0.7785964834
 C         -2.1755225100        1.1439149739        1.5381990289
 C         -2.3275030585        0.2409593642        2.6698640853
 C         -3.4591900149       -0.2236132100        3.1874979863
 C         -0.9469508486        1.7845527217        1.3858794930
 C         -0.6722239686        2.6797499121        0.3631846304
 O          0.5406738774        3.2867212464        0.1997017897
 C          1.6812615905        2.7514833658        0.8398349143
 C          2.0605130935        1.3718907505        0.2971319741
 C          3.1323369403        0.6761009433        1.1332937114
 C          4.5056276750        1.3489774120        1.1034552024
 C          5.1239862452        1.4877649364       -0.2902448404
 C          5.2133387474        0.1875895863       -1.0912372725
 C          6.0541613322       -0.8931389450       -0.4160408231
 C          6.1742003357       -2.1393052946       -1.2901704227
 C          6.9948850287       -3.2378206217       -0.6190438597
 C          7.1095614010       -4.4772401473       -1.4978988499
 H         -0.6550755842        5.5181396949       -2.6807557390
 H          0.1853515488        4.9934243973       -1.1392355959
 H         -2.3761396571        3.8805541401       -2.3716974580
 H         -3.6894711951        2.5651900165       -1.1335444970
 H         -4.5893754624        0.5965659333       -1.3894297141
 H         -5.8384926535        1.5056610044       -0.4974818318
 H         -6.8908066265       -0.5216946759       -1.0402523274
 H         -6.4003735953       -0.7532459199        0.6427231472
 H         -4.7375031636       -1.7040964885       -1.7214235717
 H         -5.9786373806       -2.7120588698       -0.9851215861
 H         -4.8353709088       -2.7771586985        1.1241122571
 H         -3.7069560583       -1.5228495315        0.6497152467
 H         -3.8810610567       -4.2774188381       -0.6443773498
 H         -2.7569931560       -3.8422274228        0.6371992724
 H         -2.8405681865       -2.7053478086       -2.1896611084
 H         -1.6541730132       -3.8139511750       -1.5299491751
 H         -2.0834652820       -0.9098204097       -0.6937075193
 H         -0.7865593778       -1.5233353759       -1.6995479285
 H         -1.2595701044       -2.2069672823        1.2337445315
 H         -0.0888227629       -1.0525568441        0.6181992681
 H         -0.0405983152       -4.0555277587        0.0830323737
 H          0.9434438478       -3.1924606609        1.2582085947
 H          1.0729000390       -2.8668791782       -1.7753400718
 H          2.2913011268       -3.5857920553       -0.7275469860
 H          1.9546246838       -1.8551377180       -0.6314184451
 H         -1.3893684129       -0.0385488624        3.1366424274
 H         -4.4224173284        0.0370881131        2.7912905207
 H         -3.4470177408       -0.8820099715        4.0405171421
 H         -0.1884172951        1.5646828290        2.1214593289
 H          1.5418619886        2.7138998925        1.9284990603
 H          2.4692818078        3.4780052301        0.6259099428
 H          2.3871572705        1.4768232105       -0.7378059053
 H          1.1621288480        0.7496699241        0.2890725242
 H          3.2314601382       -0.3531681737        0.7850275449
 H          2.7946010505        0.6311231837        2.1726259310
 H          5.1802619722        0.7696423176        1.7371183110
 H          4.4287747074        2.3452163063        1.5445159675
 H          6.1303197713        1.8976371302       -0.1724344935
 H          4.5476473131        2.2121011602       -0.8695468441
 H          5.6561024257        0.4182132532       -2.0638364212
 H          4.2114507000       -0.2020212414       -1.2796116641
 H          5.6023375218       -1.1743629337        0.5367419531
 H          7.0514621349       -0.4984545107       -0.2072580322
 H          6.6409249345       -1.8716040878       -2.2412294677
 H          5.1741065603       -2.5212231144       -1.5106140638
 H          6.5267485235       -3.5086424075        0.3303510457
 H          7.9943875492       -2.8565856183       -0.3971749946
 H          6.1238782876       -4.8844679008       -1.7130818935
 H          7.6981565817       -5.2462230147       -1.0028628745
 H          7.5905437802       -4.2316469351       -2.4423138623
