  46
        -51.58597138
 C         -3.8154517692       -1.8262003274       -1.2503703680
 C         -2.7488749298       -0.9629553003       -0.6683938613
 C         -1.4088825222       -1.2055221642       -0.6376794267
 N         -0.7532769580       -0.1723641452       -0.0106253499
 Si         0.9959928459        0.0319779320        0.1283279834
 C          1.5473089472        0.5296619282        1.9104438459
 C          2.8307582001        1.3618314150        1.8885179315
 C          0.4884477847        1.2540722961        2.7383587117
 C          1.7746697718       -1.6763310023       -0.2888413240
 C          3.2951792970       -1.5981756381       -0.4076027666
 C          1.4012545389       -2.7539862728        0.7286630120
 C          1.4919458467        1.3342037885       -1.2045968905
 C          1.2218972192        0.8045115746       -2.6138687962
 C          0.7565176768        2.6609420095       -1.0194423347
 C         -1.7169265863        0.7401432681        0.3452398173
 C         -2.9487277839        0.2966258313       -0.0316082762
 C         -4.2597795286        0.9767586026        0.1680358303
 H         -3.3836374037       -2.7304598602       -1.6723418274
 H         -4.3516899660       -1.2944974308       -2.0365224408
 H         -4.5396955977       -2.1077544474       -0.4859323713
 H         -0.8695755381       -2.0432414128       -1.0291044469
 H          1.7767260944       -0.3988079892        2.4440989030
 H          2.6569175982        2.3275443479        1.4209963055
 H          3.6199384180        0.8568153061        1.3385640387
 H          3.1832098250        1.5387833426        2.9039984247
 H          0.2551761070        2.2245448214        2.3065155385
 H          0.8541663955        1.4206616316        3.7512841139
 H         -0.4254231129        0.6695222816        2.7979252378
 H          1.3936620720       -1.9962815997       -1.2631486569
 H          3.7405963286       -1.3399715050        0.5500461533
 H          3.5948046334       -0.8518083084       -1.1387049939
 H          3.7029462372       -2.5600118321       -0.7165908544
 H          1.8525067665       -2.5410295481        1.6948627092
 H          1.7612272858       -3.7284716864        0.4004693536
 H          0.3246463066       -2.8134227354        0.8636217870
 H          2.5642708676        1.5372589157       -1.1240457059
 H          0.1686518118        0.5582250648       -2.7299698719
 H          1.8068426171       -0.0886457951       -2.8167367446
 H          1.4794690936        1.5561813165       -3.3587822643
 H         -0.3136771823        2.5190488393       -1.1483427652
 H          1.0934095034        3.3891596481       -1.7562648055
 H          0.9316170410        3.0758624080       -0.0299685195
 H         -1.4553085353        1.6502092209        0.8431997169
 H         -4.1209229752        1.9258167789        0.6802414283
 H         -4.9279071444        0.3530719006        0.7620197078
 H         -4.7442833456        1.1636352036       -0.7904248999
