  19
        -28.26966091
 C          2.8152630628        0.7716481014        0.4408507156
 C          2.2135178498       -0.2586248349       -0.1383234877
 C          0.7918297240       -0.5263614267       -0.1278932827
 N          0.3561937535       -1.8008096610       -0.2674486807
 N         -0.9139306298       -1.8407879342       -0.1578772743
 N         -1.3669961233       -0.6121306427        0.0579212459
 C         -2.7689925121       -0.3593807148        0.2019927553
 C         -0.3357233153        0.2783048554        0.0765133867
 C         -0.5644807628        1.6966573696        0.2255476952
 C          0.1697650918        2.6438746043       -0.3444288718
 H          3.8862819747        0.8763823085        0.4191915275
 H          2.2680768138        1.5362745011        0.9660366856
 H          2.7898868537       -1.0365417576       -0.6206853201
 H         -3.2829450132       -1.3105844053        0.0779218496
 H         -3.1128920649        0.3448119644       -0.5576979249
 H         -2.9893036519        0.0442239240        1.1925489886
 H         -1.4279252801        1.9650466693        0.8230121332
 H          1.0134074961        2.4068691278       -0.9693689839
 H         -0.0578969040        3.6868350204       -0.2084827539
