  47
        -56.03043037
 C          4.0449567072       -3.6750700927        3.5163194551
 C          4.5773490140       -2.7921988968        2.6743492916
 C          3.8422412757       -1.8079284009        1.9271484656
 C          2.4957483974       -1.5486592403        1.8901292522
 C          2.1366306557       -0.4902646274        1.0370914716
 C          0.7162544320       -0.0723843348        0.8170431152
 C          0.1496954319       -0.7280657030       -0.4486552908
 C         -1.3283162998       -0.4126811832       -0.6747708724
 C         -1.5874701023        1.0617376349       -0.9810178451
 C         -3.0133281950        1.3285954199       -1.4645192444
 C         -4.0699551029        1.0402451624       -0.3991040624
 C         -5.4590816474        1.5523298188       -0.7812976927
 C         -6.0475324663        0.8346408238       -1.9949056048
 C         -7.5194723544        1.1717051428       -2.2354812261
 C         -7.7431601914        2.6261692003       -2.6329981118
 C          3.2250523487        0.0692531726        0.3993483037
 C          3.2337579921        1.1567819965       -0.5386222810
 C          4.3145265421        1.6156473101       -1.1649805116
 S          4.6991601866       -0.7226032471        0.8756070904
 H          4.6578948966       -4.3844741863        4.0434441077
 H          2.9868382634       -3.7194753650        3.7072176391
 H          5.6475262252       -2.7818121796        2.5121918843
 H          1.7753316283       -2.1022769102        2.4656386041
 H          0.6554591102        1.0131295811        0.7307757693
 H          0.1168297540       -0.3783337731        1.6769866865
 H          0.2727470377       -1.8106557035       -0.3618234629
 H          0.7311691329       -0.4005982974       -1.3137477970
 H         -1.8952839116       -0.7107729999        0.2089160818
 H         -1.6838930445       -1.0123093284       -1.5164825716
 H         -0.8903034470        1.3862239652       -1.7582890563
 H         -1.3984509157        1.6643459180       -0.0903529307
 H         -3.2074726932        0.7204839416       -2.3497845915
 H         -3.0898171699        2.3786104954       -1.7586762248
 H         -3.7666909785        1.5213407889        0.5346077984
 H         -4.1253501584       -0.0345454875       -0.2167005527
 H         -5.3990788020        2.6239230994       -0.9795420315
 H         -6.1298583707        1.4082973243        0.0698678949
 H         -5.9574606410       -0.2439412490       -1.8413856458
 H         -5.4760103319        1.0924459668       -2.8882543482
 H         -8.0930951492        0.9507875315       -1.3321508191
 H         -7.8983112249        0.5265806011       -3.0321495594
 H         -7.4704745233        3.2980264818       -1.8234721063
 H         -8.7902345946        2.7951627223       -2.8746160996
 H         -7.1452610614        2.8776278579       -3.5065597772
 H          2.2693727654        1.6103711232       -0.7261663395
 H          5.2862956828        1.1794254866       -1.0022315668
 H          4.2607815596        2.4365630870       -1.8578230498
