  80
        -93.64818203
 C         -7.9375064690        2.2673863840        1.0359275703
 C         -7.5772428916        2.1008369044        2.5077811297
 C         -6.7247685428        0.8617611296        2.7840556636
 C         -5.3204395822        0.9486090484        2.1903791736
 C         -4.4764736151       -0.2680985827        2.5630493819
 C         -3.0212071598       -0.1623065509        2.1035721712
 C         -2.8215863540       -0.0531731403        0.5911557126
 C         -3.3220224033       -1.2750551921       -0.1752889085
 C         -3.0249325180       -1.2045548053       -1.6739527332
 C         -1.5353563439       -1.2599294951       -2.0112464184
 O         -0.9883991965        0.0295237326       -1.8422870400
 C          0.3608029575        0.2003273741       -1.9690399923
 C          1.2590465654       -0.8002188104       -2.3155918544
 C          2.6206936301       -0.5527169592       -2.3937738501
 C          3.5868381119       -1.6396985403       -2.7527891451
 C          3.0970148959        0.7354977370       -2.1322788717
 O          4.4542585484        0.9040833316       -2.2385524601
 C          5.0647780487        2.0140291448       -1.6180021505
 C          4.9073343624        2.0075562306       -0.0937650577
 C          5.4073736429        0.6953168339        0.5181684006
 C          4.6258373663        0.2800816833        1.7653967077
 C          3.2041298970       -0.1768683103        1.4385205417
 C          2.4898444220       -0.7469293949        2.6615155967
 C          0.9993379975       -0.9959672990        2.4227380842
 C          0.6823069554       -1.9118511720        1.2404679357
 C          1.2657534565       -3.3162006873        1.3724252192
 C          0.8466388863       -4.2042216141        0.2066945547
 C          2.1932473859        1.7434458552       -1.8188119181
 C          0.8352099766        1.4942523138       -1.7248978353
 C         -0.1351894674        2.5769563539       -1.3651799099
 H         -8.6091394527        3.1130464018        0.9051599243
 H         -8.4348877546        1.3744067895        0.6629720620
 H         -7.0505317747        2.4450556157        0.4336177758
 H         -8.4997689747        2.0249498704        3.0886998333
 H         -7.0428772941        2.9890711187        2.8529253117
 H         -7.2320493397       -0.0199123937        2.3844158269
 H         -6.6413035041        0.7298874947        3.8661170421
 H         -4.8295572412        1.8532945116        2.5577898782
 H         -5.3914338521        1.0211147969        1.1054347887
 H         -4.9329677816       -1.1675276098        2.1457996891
 H         -4.4811876077       -0.3793209494        3.6508859484
 H         -2.4793392358       -1.0393948716        2.4674313795
 H         -2.5712026118        0.7158033085        2.5741112002
 H         -1.7558063943        0.0712391713        0.3984775616
 H         -3.3235070673        0.8381004608        0.2120755008
 H         -4.4024495964       -1.3674867662       -0.0497699168
 H         -2.8632186210       -2.1769687394        0.2391239535
 H         -3.4305211865       -0.2788989337       -2.0853659465
 H         -3.5164902963       -2.0433028835       -2.1711514159
 H         -1.4029046863       -1.5827547919       -3.0547690511
 H         -1.0292913250       -1.9816695891       -1.3566096495
 H          0.9085044084       -1.7979037439       -2.5315713144
 H          3.0700186309       -2.5793385701       -2.9305403173
 H          4.3117673198       -1.7797527079       -1.9516016929
 H          4.1441946963       -1.3643840262       -3.6464718531
 H          4.6889922262        2.9571746323       -2.0374645001
 H          6.1210601177        1.9180956398       -1.8858357261
 H          3.8536467485        2.1398310035        0.1488422201
 H          5.4536368807        2.8589811778        0.3149592195
 H          6.4672564767        0.7883291798        0.7643255246
 H          5.3122947914       -0.0961749397       -0.2281862993
 H          4.5940574274        1.1119938169        2.4732004643
 H          5.1543928229       -0.5445561927        2.2504517484
 H          3.2523496698       -0.9341654141        0.6546135530
 H          2.6185825502        0.6575840966        1.0478535246
 H          2.5879415338       -0.0411768014        3.4909328129
 H          2.9763557114       -1.6747256633        2.9687025292
 H          0.5075417879       -0.0353479245        2.2484946454
 H          0.5686407875       -1.4251655662        3.3314959951
 H          1.0454227599       -1.4533741807        0.3186180189
 H         -0.4048620388       -1.9930611418        1.1609974384
 H          0.9279927747       -3.7627135467        2.3109850530
 H          2.3548928332       -3.2628854919        1.4010868913
 H         -0.2374066019       -4.2938057152        0.1611068617
 H          1.2671334431       -5.2019664642        0.3110499843
 H          1.1966513607       -3.7822643830       -0.7332452506
 H          2.5376331343        2.7520257492       -1.6473516814
 H          0.3677252194        3.5354261901       -1.2665038031
 H         -0.6329974993        2.3378288079       -0.4261598383
 H         -0.9073238380        2.6541328605       -2.1285480088
