  23
        -37.83892163
 C          2.1601633711       -3.1531020375        0.0475009115
 C          0.9264377147       -2.6552329731        0.0399541694
 C          0.6054855453       -1.2579392665        0.0193035589
 S          1.8072967908        0.0003116729        0.0002981515
 C          0.6050313320        1.2581589252       -0.0186841076
 C          0.9255540314        2.6555455186       -0.0396897950
 C          2.1591281254        3.1537617659       -0.0488706826
 C         -0.6569034360        0.7071362407       -0.0058650252
 C         -0.6566469398       -0.7073583889        0.0064657346
 O         -1.8076979688       -1.4473280955       -0.0050146102
 C         -2.9285052221       -0.6687447556       -0.3723402532
 C         -2.9290839251        0.6677726291        0.3715131541
 O         -1.8081899274        1.4467385039        0.0052864328
 H          2.3417276976       -4.2127041318        0.0588356557
 H          3.0223492566       -2.5069564119        0.0426867580
 H          0.0600087200       -3.3035846937        0.0469838459
 H          0.0589404857        3.3036583752       -0.0458973945
 H          3.0215001737        2.5078584024       -0.0451071106
 H          2.3403835219        4.2134177756       -0.0603203599
 H         -3.8090890572       -1.2591592533       -0.1161768728
 H         -2.9121091020       -0.4795794731       -1.4547904971
 H         -2.9136988153        0.4786147214        1.4539799178
 H         -3.8096187332        1.2579078621        0.1144961287
