20
 energy: -43.327123179361 gnorm: 0.000115703870 xtb: 6.4.1 (23d549d)
C         3.69341503530000    1.00932320850000    0.17312291430000
C         2.46034095240000    1.42204673670000   -0.09454271460000
C         1.24100191430000    0.62056755080000   -0.04220714100000
C         1.20455359110000   -0.77646004570000   -0.04754003760000
F         2.33127696130000   -1.49631717390000   -0.11674037090000
C        -0.00003299850000   -1.46530169010000    0.00019564340000
F        -0.00000241840000   -2.80506534700000    0.00012360540000
C        -1.20463346900000   -0.77648580780000    0.04794239260000
F        -2.33143170990000   -1.49621969530000    0.11701391070000
C        -1.24100388560000    0.62052343230000    0.04296342150000
C        -2.46050264080000    1.42181427510000    0.09494321330000
C        -3.69278451540000    1.00948737700000   -0.17691230010000
C        -0.00002210510000    1.26212647170000    0.00060995900000
F        -0.00010810550000    2.60816703300000    0.00090316070000
H         4.52169820560000    1.69362939030000    0.10774496330000
H         3.93134973940000    0.00351899710000    0.46881535980000
H         2.29237853180000    2.45763424320000   -0.35859687250000
H        -2.29332672150000    2.45655543940000    0.36228335810000
H        -3.92953777110000    0.00445481210000   -0.47601888460000
H        -4.52151668800000    1.69320922780000   -0.11176068500000
