  30
        -34.88806968
 C          3.3179874161       -0.6667078319       -1.2656407192
 C          2.8568232909       -0.5470951692        0.1885257657
 C          1.3866796648       -0.2351225192        0.2572497640
 C          0.4768268359       -1.2824550905        0.2498012149
 C         -0.8957526773       -1.0848116880        0.2700129448
 C         -1.8178173138       -2.2691462823        0.2698726864
 C         -1.3785849136        0.2235374987        0.3056583206
 C         -2.8498779939        0.5373502118        0.2916910742
 C         -3.3527683391        0.7161195319       -1.1424145614
 C         -0.4686736774        1.2708599682        0.3147119812
 C          0.9037794431        1.0733577906        0.2880933425
 C          1.8262567582        2.2571727024        0.3100868874
 H          4.3809470575       -0.8941014070       -1.3119450187
 H          3.1388150799        0.2613427749       -1.8036124883
 H          2.7702945583       -1.4598721455       -1.7696489591
 H          3.4374640757        0.2271820689        0.6909539304
 H          3.0489381570       -1.4941175680        0.6982436735
 H          0.8568635231       -2.2953896477        0.2278923201
 H         -1.2503010654       -3.1924433982        0.1813654289
 H         -2.5224543380       -2.2181033632       -0.5582318851
 H         -2.3908679940       -2.3094959726        1.1964336698
 H         -3.0265460603        1.4626554790        0.8449919783
 H         -3.4164040387       -0.2570414979        0.7785229737
 H         -2.8187872772        1.5289939277       -1.6294782866
 H         -4.4162481320        0.9455809744       -1.1484942390
 H         -3.1907542232       -0.1893589899       -1.7226206359
 H         -0.8486163046        2.2836323767        0.3444006410
 H          1.2572068988        3.1829937028        0.2733293651
 H          2.5085687230        2.2391816919       -0.5377622665
 H          2.4237450460        2.2610744356        1.2219485677
