29
 energy: -43.526601768890 gnorm: 0.000062609648 xtb: 6.4.1 (23d549d)
C        -1.06949662080000   -3.21205182450000    0.85528823700000
C        -1.23765804570000   -2.38595187700000   -0.16472024600000
C        -0.82783307420000   -0.96514783090000   -0.12882070070000
C        -1.70790333440000    0.09973633980000   -0.07660220300000
O        -3.07220859710000    0.07363347870000   -0.06644331650000
C        -3.79892449250000   -1.08856338160000   -0.37920294260000
C        -1.21237033270000    1.41545811000000    0.02932817080000
C         0.12294478770000    1.73442101470000    0.07577870960000
C         0.47891663540000    3.14010867140000    0.20732623090000
C         1.69344039860000    3.66506211680000    0.32495910710000
C         1.05807297470000    0.65797937800000   -0.01475742710000
N         2.37461214060000    0.92247092440000   -0.00510471020000
C         3.23613229250000   -0.05104325820000   -0.09743446520000
C         2.86725412740000   -1.39675427650000   -0.22190010770000
C         1.53317306840000   -1.70104217770000   -0.23334881110000
C         0.56765066870000   -0.67669975560000   -0.11757635370000
H        -1.35130217480000   -4.25036076940000    0.80019614420000
H        -0.65175170960000   -2.87507829790000    1.79003496710000
H        -1.65172848070000   -2.75227264610000   -1.09683191180000
H        -4.84660832220000   -0.80294157480000   -0.28390947820000
H        -3.58354496560000   -1.90763915570000    0.31084000540000
H        -3.61216761280000   -1.41249868740000   -1.40697171210000
H        -1.95864432590000    2.19434294280000    0.08709495320000
H        -0.38165792820000    3.80042144040000    0.21349042330000
H         2.57401110150000    3.05013645540000    0.32678443000000
H         1.82544248440000    4.73053711270000    0.42004619720000
H         4.27960943160000    0.23883510110000   -0.08085842610000
H         3.61933157520000   -2.16543343720000   -0.31227693540000
H         1.20829194030000   -2.72610244390000   -0.33693573620000
