  30
        -48.97498542
 C          3.3410353906        2.5533709527        0.4969995250
 N          3.0038582706        1.2196457656        0.0601616563
 C          1.6611954896        0.8557173521        0.0259964228
 C          0.6384548637        1.7836672076        0.0170853936
 C         -0.6926272748        1.3892964580       -0.0843093079
 C         -1.0545734763        0.0619342593       -0.1819748446
 C         -2.4387515661       -0.3193820143       -0.4194072857
 C         -3.5198664844        0.3564189549       -0.0611265737
 F         -3.5815440153        1.4899184045        0.6335783164
 F         -4.7627828492       -0.0402455686       -0.3488861197
 C          1.3188711286       -0.5328268186        0.0702512717
 C         -0.0376824001       -0.9332405995       -0.0671558659
 C         -0.3331743795       -2.3117759919       -0.0187450035
 C          0.6448221585       -3.2474845620        0.1781351054
 C          1.9696078865       -2.8460670869        0.3784240629
 C          2.2938753181       -1.5184010828        0.3278475224
 C          3.8546802748        0.7678166269       -1.0228687633
 H          2.7660758795        2.8031239332        1.3863811479
 H          3.1682842208        3.3179525884       -0.2731525008
 H          4.4011978288        2.5667439878        0.7542737028
 H          0.8565150147        2.8394818847        0.0346176045
 H         -1.4469401649        2.1577647169       -0.1472165631
 H         -2.6306908491       -1.2352762648       -0.9572533890
 H         -1.3569177163       -2.6390063588       -0.1111740296
 H          0.3921467769       -4.2971296974        0.2125848693
 H          2.7284426566       -3.5851497645        0.5889451572
 H          3.3054278068       -1.2063087422        0.5329968295
 H          3.9302307350        1.5362687423       -1.8042144922
 H          3.4537845227       -0.1355738358       -1.4737075114
 H          4.8596783096        0.5660163457       -0.6452666357
