  20
        -31.92091438
 C         -4.6309350570        0.1070433571       -0.0054896128
 C         -3.6408209648       -0.7815460365       -0.0021023577
 C         -2.2421224211       -0.4566442027        0.0007118524
 C         -1.1964823716       -1.3453623915        0.0016506280
 C          0.0448700743       -0.6952181672        0.0023392591
 S          1.6934650728       -1.2113090662        0.0014350597
 C          2.2421126084        0.4566152906        0.0005233547
 C          3.6408099284        0.7815630395       -0.0023415931
 C          4.6309615683       -0.1069898466       -0.0050419681
 C          1.1964756958        1.3453443602        0.0015723494
 C         -0.0448779345        0.6952044529        0.0023802768
 S         -1.6934624955        1.2113008530        0.0016288041
 H         -5.6626403338       -0.1959705168       -0.0079587811
 H         -4.4345019904        1.1666178510       -0.0059095827
 H         -3.8556437439       -1.8427396359       -0.0018692829
 H         -1.3234169583       -2.4125390945        0.0013960031
 H          3.8555827197        1.8427710126       -0.0026964629
 H          4.4345657958       -1.1665838622       -0.0049389822
 H          5.6626544797        0.1960699549       -0.0077413195
 H          1.3234237984        2.4125180962        0.0013525393
