36
 energy: -61.854215689006 gnorm: 0.000056109250 xtb: 6.4.1 (23d549d)
F        -6.19754544300000   -1.11676434670000   -0.08004991380000
C        -4.94949001550000   -0.64369658970000   -0.05141732620000
F        -4.99786771230000    0.68363982350000    0.01398243850000
C        -3.87982518850000   -1.42480329680000   -0.08514919730000
C        -2.47751013190000   -1.04568866220000   -0.05999933120000
C        -2.04739219060000    0.27803684330000   -0.00888666260000
C        -0.68871847670000    0.54265828630000    0.01629394540000
C         0.07143038140000    1.76164251360000    0.04792524870000
C        -0.27918779440000    3.10443386710000    0.09180895680000
C         0.72772780530000    4.04780209180000    0.13679093780000
C         2.06757019030000    3.66619450040000    0.15309885490000
C         2.44059128520000    2.33629984840000    0.11004816030000
C         1.43349709770000    1.38475815550000    0.04115843100000
N         1.52586507920000    0.00547540140000    0.01215112430000
C         2.71668168660000   -0.73677738100000   -0.00435875120000
C         2.90996559020000   -1.76792105430000    0.90987254250000
C         4.08279337900000   -2.49976663170000    0.88575579840000
C         5.07144906010000   -2.20491534620000   -0.03825105300000
C         4.88196815740000   -1.17559268660000   -0.94536598120000
C         3.70844834950000   -0.44459955610000   -0.93576284250000
C         0.25224747260000   -0.51472333100000   -0.00107957770000
C        -0.17010316420000   -1.83582633670000   -0.07632775040000
C        -1.52547496720000   -2.07992626520000   -0.10078090640000
H        -4.09257095360000   -2.48301805510000   -0.13714389070000
H        -2.74930105370000    1.09472202510000    0.00636856010000
H        -1.31775190230000    3.39798289640000    0.09494125950000
H         0.47821090090000    5.09774972920000    0.16908950860000
H         2.83255814930000    4.42681991940000    0.20416276390000
H         3.48101547570000    2.04989709490000    0.14062827060000
H         2.14568448950000   -1.97991715100000    1.64265350780000
H         4.22842140720000   -3.29874147960000    1.59751149590000
H         5.98746128220000   -2.77582222450000   -0.05131394390000
H         5.64863989290000   -0.94521605040000   -1.67013624200000
H         3.54729358330000    0.34454253710000   -1.65492576080000
H         0.53849244130000   -2.64856338870000   -0.12580551700000
H        -1.87234736480000   -3.10126179720000   -0.15693872340000
