20
 energy: -43.326833372047 gnorm: 0.000067899534 xtb: 6.4.1 (23d549d)
C         3.54063415310000    1.17793478160000    0.27220047210000
C         2.30416354750000    1.48328689870000   -0.10145830310000
C         1.13943061390000    0.60231150640000   -0.05746387880000
C         1.20811726500000   -0.79218715430000   -0.01699371680000
F         2.38857220930000   -1.42394519180000   -0.02341244790000
C         0.05791383190000   -1.57097597000000    0.00068388570000
F         0.15519152830000   -2.90636169990000    0.02934787800000
C        -1.18748190940000   -0.96251168740000   -0.01542552320000
F        -2.28125328150000   -1.73671046690000    0.00637163060000
C        -1.32947123080000    0.42927762560000   -0.04752920190000
C        -2.67551456530000    0.99616638220000   -0.06902695640000
C        -3.02311598690000    2.23617760200000    0.25227971500000
C        -0.14295062270000    1.16289170990000   -0.07831085850000
F        -0.21620299550000    2.50344290370000   -0.14464890980000
H         4.32661321640000    1.90994768940000    0.20316350940000
H         3.82113519790000    0.21591516470000    0.66157749340000
H         2.08639714820000    2.48240418890000   -0.45434324460000
H        -3.44135420780000    0.28679853660000   -0.35355812790000
H        -2.32075773510000    2.98355011960000    0.57429550500000
H        -4.05460906190000    2.54044025530000    0.20752670420000
