  18
        -31.27442451
 C          2.8335903132       -1.4703790251       -0.0000274841
 C          1.5496724790       -0.7170305455       -0.0000089430
 C          0.2419841833       -1.2492085829       -0.0000087501
 C         -0.6188434044       -0.1804451746        0.0000083090
 C         -2.0827825950       -0.1288817337        0.0000083429
 O         -2.7807985897       -1.1069926815        0.0000419268
 O         -2.6023793203        1.1146417189       -0.0000541048
 O          0.0946963307        0.9814144510        0.0000141650
 C          1.4000674264        0.6493165300        0.0000080380
 C          2.4148893839        1.7336409354        0.0000259157
 H          2.6404279236       -2.5389265180       -0.0001246208
 H          3.4235807863       -1.2198993634        0.8805967444
 H          3.4236428035       -1.2197471767       -0.8805664073
 H         -0.0432441436       -2.2807383958       -0.0000172968
 H         -1.9041351983        1.7851711251       -0.0000771057
 H          1.9210273978        2.7013274081        0.0000375418
 H          3.0511149906        1.6574879807       -0.8808057733
 H          3.0511080002        1.6574636884        0.8808606859
  18
        -31.26982595
 C          2.8218830229       -1.4524900557        0.0027931428
 C          1.5480454880       -0.6816912989        0.0014177662
 C          0.2342413664       -1.1926015483        0.0029629409
 C         -0.6140091379       -0.1047348307        0.0007011020
 C         -2.0777973018        0.0116288706       -0.0000374391
 O         -2.6717599787        1.0534866159       -0.0089557104
 O         -2.7407737231       -1.1675831290        0.0088017390
 O          0.1183620157        1.0312082625       -0.0024093052
 C          1.4112077410        0.6893589891       -0.0018190394
 C          2.4386767666        1.7612382786       -0.0040274809
 H          2.6189177084       -2.5196819140        0.0045262077
 H          3.4148612632       -1.2070971081        0.8827492826
 H          3.4148900460       -1.2099814389       -0.8779346679
 H         -0.0270538173       -2.2336723146        0.0051056587
 H         -2.1450432255       -1.9266954789        0.0161792000
 H          1.9479026369        2.7300474598       -0.0063287717
 H          3.0738915477        1.6778997309       -0.8848561616
 H          3.0734072362        1.6818625080        0.8775223233
