47
 energy: -92.146741547092 gnorm: 0.000076498399 xtb: 6.4.1 (23d549d)
C         2.77509760340000   -0.61795052290000   -2.51003165790000
O         1.89293058090000   -1.39852089710000   -1.71525108690000
C         2.46592888100000   -2.28961177700000   -0.89469234320000
C         1.45600986630000   -3.06742513720000   -0.12468342120000
C         0.33966536580000   -2.47973764690000    0.48589189880000
N         0.15550437990000   -1.09058747960000    0.50197839710000
C         1.23882405420000   -0.24577808400000    0.72174546970000
C         1.29932962880000    1.00282783850000    0.10434331100000
C         2.39878135360000    1.82031312220000    0.30945394050000
C         2.42604413280000    3.13476381190000   -0.41496253810000
F         1.33034331930000    3.87652855680000   -0.16997510740000
F         3.47967991990000    3.89899165420000   -0.10511735380000
F         2.46184536660000    2.96639944520000   -1.75451082930000
C         3.45246446380000    1.42396860390000    1.12068154210000
C         3.38476096680000    0.18525031560000    1.73820842750000
C         2.29531355900000   -0.64050567180000    1.54781128630000
C        -1.12315670770000   -0.57186023070000    0.27017353100000
C        -1.57498581760000    0.55389025310000    0.95964763600000
C        -2.83871432140000    1.05592132690000    0.73529330690000
C        -3.69822484430000    0.44709735910000   -0.18305014030000
C        -5.04114985350000    0.92070189300000   -0.46540141130000
C        -5.69133134530000    1.93628746280000    0.08519685550000
F        -5.26653022980000    2.76294369160000    1.03321318190000
F        -6.93258092310000    2.27569940580000   -0.25859481030000
C        -3.23764766830000   -0.68138391670000   -0.86792380740000
C        -1.97463245410000   -1.18477164810000   -0.64923814780000
C        -0.58673139560000   -3.30195594360000    1.12719147530000
C        -0.40376826850000   -4.66986524160000    1.17364797870000
C         0.72197569410000   -5.24526475910000    0.60398900290000
C         1.64729495900000   -4.44227678180000   -0.03501188180000
O         3.65472584070000   -2.47066873470000   -0.82851007810000
H         2.19209094660000    0.21440318440000   -2.89519783340000
H         3.17034855250000   -1.21908747190000   -3.33104930120000
H         3.60736561050000   -0.25564179910000   -1.90386533870000
H         0.50247420530000    1.32438330850000   -0.54879244290000
H         4.30422415380000    2.06906686240000    1.26312091700000
H         4.19210548000000   -0.13834562030000    2.37589005610000
H         2.25641035900000   -1.60109621340000    2.03903433310000
H        -0.92909181330000    1.03143851690000    1.68123764780000
H        -3.15634303940000    1.92512527710000    1.28659108390000
H        -5.59374741530000    0.38004873040000   -1.22034118960000
H        -3.88159815990000   -1.16377485230000   -1.58829476340000
H        -1.63143411860000   -2.05093884080000   -1.19464306140000
H        -1.44783874560000   -2.85071975520000    1.59754154260000
H        -1.13348883770000   -5.28782649020000    1.67462892300000
H         0.87536576090000   -6.31158676340000    0.65763096460000
H         2.52853021430000   -4.86719790850000   -0.49105854400000
