  20
        -34.66157983
 C         -3.8818835212       -0.5334767394        0.1602265236
 C         -2.8184294752        0.1076321182       -0.3056764735
 C         -1.4428375584       -0.3310006265       -0.1266079017
 C         -1.0754799647       -1.6433559290       -0.0173675786
 S          0.6133865511       -1.8673664282        0.0806098781
 C          0.8827263416       -0.1481307864       -0.0311406484
 C          2.2353231528        0.4178093218       -0.0041147730
 O          2.4561913741        1.6006196303       -0.0291363338
 O          3.2543632747       -0.4619787397        0.0430609940
 C         -0.3094186855        0.5440454856       -0.1280477786
 C         -0.3852287610        1.9926634224       -0.2043520528
 C         -1.3269774468        2.7195125718        0.3845850488
 H         -4.8793011674       -0.1719871306       -0.0193531971
 H         -3.7973023841       -1.4305379902        0.7503167135
 H         -2.9350058757        1.0246922087       -0.8677178325
 H         -1.7132113760       -2.5052114610       -0.0178727025
 H          2.9645555144       -1.3837055077        0.0580341292
 H          0.4242786649        2.4704734363       -0.7373622119
 H         -2.1019587914        2.2786894759        0.9903863289
 H         -1.3312435835        3.7928205003        0.3057239077
  20
        -34.65895897
 C         -3.8814430620       -0.5975133623        0.1558030462
 C         -2.8203800373        0.1021291103       -0.2249740305
 C         -1.4430139666       -0.3498437691       -0.1206663956
 C         -1.0549842081       -1.6638350337       -0.0571367224
 S          0.6367725524       -1.8798535513       -0.0140442518
 C          0.8778318622       -0.1671126583       -0.0711001256
 C          2.2688123743        0.2977389993       -0.0067383644
 O          3.2025034622       -0.4373634004       -0.1892598227
 O          2.4575734951        1.5986567089        0.2896880757
 C         -0.3142920846        0.5264433138       -0.1353654139
 C         -0.4180515764        1.9822095359       -0.2371413377
 C         -1.2266453879        2.7217599209        0.5106188507
 H         -4.8788180744       -0.2107138849        0.0401981034
 H         -3.7952836658       -1.5720526971        0.6050324548
 H         -2.9478188757        1.0910620776       -0.6456966402
 H         -1.6947951397       -2.5237702080       -0.0574573318
 H          1.6267637181        2.0647401781        0.4660159239
 H          0.1975565246        2.4491322444       -0.9992260144
 H         -1.8436465202        2.2865909450        1.2791932324
 H         -1.2870718066        3.7897749906        0.3893552393
  20
        -34.65888624
 C         -3.9370852813       -0.8936903385        0.2515278417
 C         -2.9202216587       -0.0513496307        0.1165814913
 C         -1.5224775624       -0.4334715084        0.0051034079
 C         -1.0629463935       -1.6938279269       -0.2794536026
 S          0.6360747272       -1.7951435477       -0.3801951355
 C          0.7829940417       -0.1021429059       -0.0358231564
 C          2.1689469986        0.3684020026        0.0969099469
 O          3.0997629202       -0.3489131631       -0.1634923681
 O          2.3636492427        1.6172780788        0.5505446369
 C         -0.4464129418        0.4980890708        0.1394125408
 C         -0.6895603607        1.9136906700        0.4257745220
 C         -0.2245945152        2.9216154516       -0.3026966207
 H         -4.9506788346       -0.5400223247        0.3237641755
 H         -3.7985905099       -1.9597861772        0.3019607919
 H         -3.1087879721        1.0135924737        0.0832148480
 H         -1.6523458120       -2.5717047143       -0.4538934080
 H          1.5305220824        2.0963799741        0.6934043882
 H         -1.3380228723        2.1056649510        1.2725627159
 H          0.3798598832        2.7601668918       -1.1812368229
 H         -0.4573476684        3.9452430315       -0.0636631606
  20
        -34.65886407
 C         -3.4773385072        0.5272229721        0.7576475579
 C         -2.8912577899       -0.3117515844       -0.0840224558
 C         -1.4548406625       -0.5538976166       -0.1613112240
 C         -0.9684286863       -1.8085314478       -0.4031082706
 S          0.7342257127       -1.9054004716       -0.3314987691
 C          0.8426197756       -0.1993955516        0.0147679403
 C          2.1380069556        0.4647959228        0.1956500116
 O          2.2513618965        1.6492798353        0.3749643182
 O          3.2285181311       -0.3250166996        0.1598833392
 C         -0.4044507273        0.3915480731        0.0623435169
 C         -0.5787862780        1.8258662469        0.2530896379
 C         -1.3864793178        2.5715869326       -0.4873809242
 H         -4.5480631530        0.6319016471        0.7875570425
 H         -2.9135455102        1.1362744719        1.4428563367
 H         -3.4905189301       -0.9351519271       -0.7360592528
 H         -1.5327360852       -2.7006981788       -0.5945874005
 H          3.0214797342       -1.2571327699        0.0107648644
 H          0.0633753145        2.2771398134        0.9960760283
 H         -1.9921416825        2.1525597445       -1.2741145768
 H         -1.4589415654        3.6345002521       -0.3379449579
  20
        -34.65872449
 C         -3.6403101151        0.4884819062        0.0067335240
 C         -2.9225171620       -0.5769634947       -0.3253957902
 C         -1.4839566412       -0.7243839192       -0.1757060324
 C         -0.8967196939       -1.9547341798       -0.0236046112
 S          0.7941342626       -1.8881845741        0.1793741875
 C          0.7635996072       -0.1610533751        0.0367838907
 C          2.0992686462        0.4537645581        0.0302179162
 O          3.0818149192       -0.1941174979        0.2838755297
 O          2.1938816482        1.7500755372       -0.3039032513
 C         -0.5160387111        0.3268187871       -0.1412072587
 C         -0.8801702473        1.7316524815       -0.3206530865
 C         -0.5212915362        2.7218966527        0.4891501210
 H         -4.7078063943        0.5044941935       -0.1306550115
 H         -3.2013499106        1.3676752465        0.4453695553
 H         -3.4198445567       -1.4567160023       -0.7142323581
 H         -1.3991390777       -2.9023110953       -0.0046027351
 H          1.3260685339        2.1622892206       -0.4521121470
 H         -1.5211366313        1.9251825694       -1.1731589815
 H          0.0633177197        2.5500768376        1.3791399018
 H         -0.8342404337        3.7366878528        0.3114597293
  20
        -34.65429217
 C         -3.6215417329        0.2507026326       -0.8904830638
 C         -2.9806722550       -0.4491563576        0.0321871002
 C         -1.5297271728       -0.6435779447        0.0718572260
 C         -0.9817818420       -1.8869508478        0.1951437047
 S          0.7259944347       -1.8747873471        0.1798298955
 C          0.7448200797       -0.1356432253        0.0400659596
 C          2.0256853695        0.5597542086       -0.1712055340
 O          2.1216310213        1.6466026286       -0.6726097038
 O          3.1301483208       -0.1159258856        0.2055661054
 C         -0.5336824722        0.3826683567        0.0057341650
 C         -0.8643099308        1.8009229589        0.0354702008
 C         -0.2240821347        2.7025886760        0.7653990929
 H         -4.6940456674        0.3416061260       -0.8820277802
 H         -3.1068741148        0.7413129679       -1.6997045668
 H         -3.5348862499       -0.9733188727        0.8008688625
 H         -1.4977538577       -2.8244916709        0.2689004987
 H          2.9371398221       -0.9828522947        0.5869354400
 H         -1.7390086579        2.0877013318       -0.5290795105
 H          0.6289348184        2.4521025071        1.3715960921
 H         -0.5319292227        3.7334701996        0.7731735574
