  19
        -25.91021430
 C          3.0083575948       -0.3388905134       -0.0000113965
 C          1.5354402260       -0.0865130982        0.0000170169
 C          0.6015392736       -1.1250145368        0.0000193755
 C         -0.7455266419       -0.8121382522        0.0000080437
 C         -1.7894074911       -1.8831714712       -0.0000161908
 C         -1.0594009227        0.5605307484        0.0000165370
 C         -2.4606240004        1.0872850608       -0.0000025553
 N         -0.1130005350        1.4846676835        0.0000008865
 N          1.1458966030        1.1793635615       -0.0000055205
 H          3.2216788062       -1.4046782730        0.0010045014
 H          3.4594763879        0.1212786338        0.8766786367
 H          3.4591207764        0.1194715510       -0.8778412848
 H          0.9292274473       -2.1558559163        0.0000255497
 H         -1.3231202094       -2.8658675075       -0.0001154826
 H         -2.4227556752       -1.7992551356       -0.8823324832
 H         -2.4226517161       -1.7993997336        0.8823903392
 H         -3.1975441259        0.2914586535        0.0009274400
 H         -2.6091207834        1.7142049974       -0.8769487172
 H         -2.6085444353        1.7157747333        0.8759084954
