  26
        -36.72077404
 C          3.6237352882        1.5803023564        0.0898768530
 C          3.0722017805        0.3844097754        0.2559275285
 C          1.6542868403        0.0811736388        0.1093975467
 C          0.6715037322        1.0506593915        0.2906042665
 C         -0.6803364664        0.7603805662        0.1509149764
 C         -1.6438109585        1.8559833041        0.1801325762
 C         -2.6877654187        1.9632713331       -0.6348208999
 C         -1.0061752983       -0.5961458980       -0.0679202305
 N         -2.2861517736       -1.0963882688       -0.0767516432
 N         -3.3194796249       -0.6120301148        0.7451674031
 N         -0.0694922019       -1.5167674020       -0.2864825450
 C          1.2118122539       -1.2076181378       -0.2383003897
 C          2.1607075950       -2.3201669895       -0.5622677836
 H          4.6812032078        1.7347218854        0.2200331650
 H          3.0514110590        2.4465141940       -0.1967986608
 H          3.7046010022       -0.4557185760        0.5108836359
 H          0.9603651282        2.0646985554        0.5279504533
 H         -1.4213689025        2.6527800780        0.8805690091
 H         -2.8886393125        1.2270786438       -1.3967386075
 H         -3.3465141837        2.8146372332       -0.6002362224
 H         -2.2951772797       -2.1086213981       -0.1444375169
 H         -3.8012451683        0.1561200232        0.2750216384
 H         -2.9458866159       -0.2432276073        1.6201910567
 H          1.5924101112       -3.1827116963       -0.8977915890
 H          2.7366162345       -2.6008829511        0.3190172757
 H          2.8551533856       -2.0169044890       -1.3433470137
