  29
        -43.52859990
 C         -1.8067623286       -2.9413209976       -0.9486240846
 C         -1.1559884104       -2.3993699385        0.0686973600
 C         -0.7024065747       -0.9972244769        0.0871832301
 C         -1.5480804983        0.0972964830        0.0398102199
 O         -2.9117867699        0.0965129071        0.0963087081
 C         -3.6246710272       -0.9803240095        0.6534429190
 C         -1.0185622882        1.4017552624       -0.0562571021
 C          0.3268828324        1.6658410894       -0.0676575726
 C          0.8869907757        3.0054693919       -0.1645008500
 C          0.2120193832        4.1263593847       -0.3922236073
 C          1.2244525374        0.5600155090        0.0406520044
 N          2.5452139822        0.8073801781        0.0623421477
 C          3.3820586390       -0.1901489985        0.1295548786
 C          2.9807864664       -1.5332220565        0.1645016051
 C          1.6406961923       -1.8134400950        0.1464584811
 C          0.7014757370       -0.7601157875        0.1034257468
 H         -2.1045709263       -3.9765604669       -0.9489296668
 H         -2.0587120765       -2.3671271743       -1.8256090814
 H         -0.8830220856       -3.0045237284        0.9263444072
 H         -4.5662180715       -0.5565564426        1.0063417148
 H         -3.0900996113       -1.4272892294        1.4949805331
 H         -3.8340880998       -1.7566039402       -0.0884402237
 H         -1.7409528100        2.2008931319       -0.1062558013
 H          1.9609647825        3.0325351879       -0.0459351078
 H         -0.8553331147        4.1488714362       -0.5340723833
 H          0.7143209027        5.0767035013       -0.4509193635
 H          4.4320177935        0.0741832473        0.1492961146
 H          3.7175606099       -2.3210744056        0.2001141604
 H          1.2971271750       -2.8374971045        0.1581009310
