26
 energy: -36.033033917754 gnorm: 0.000038490030 xtb: 6.4.1 (23d549d)
C        -4.67549011510000    0.99168643970000   -0.10207687830000
C        -3.97588084710000   -0.13135911070000    0.01193969350000
C        -2.52417223210000   -0.25847257860000    0.01399662080000
C        -1.96510494140000   -1.55896023620000    0.00810896420000
C        -0.61593138830000   -1.75272467660000    0.00594878480000
C         0.27347950090000   -0.65561031690000    0.01358176150000
C         1.66837020730000   -0.82255109780000    0.01223189300000
C         2.52415982210000    0.25807429280000    0.02285668810000
C         3.97587789070000    0.13090703750000    0.02042954040000
C         4.67546485790000   -0.98915290010000   -0.11981028370000
C         1.96510750750000    1.55843585280000    0.04187875280000
C         0.61593422540000    1.75220745350000    0.04139795470000
C        -0.27345868670000    0.65515250320000    0.02604127470000
C        -1.66834251670000    0.82212217380000    0.02586621770000
H        -5.75197222490000    0.98337785610000   -0.09515037840000
H        -4.21370346630000    1.95802325520000   -0.21074288630000
H        -4.50888820670000   -1.07029737700000    0.10553742150000
H        -2.63291628090000   -2.40933715210000    0.00222170530000
H        -0.20596178320000   -2.75302563150000   -0.00064512270000
H         2.05909767670000   -1.82924503060000    0.00894220070000
H         4.50881652120000    1.06720175220000    0.13761341220000
H         4.21357502750000   -1.95232623290000   -0.25308576980000
H         5.75193588640000   -0.98135123880000   -0.11079990440000
H         2.63292671280000    2.40873981720000    0.05383562530000
H         0.20594142950000    2.75244275250000    0.05392463770000
H        -2.05900960030000    1.82871881110000    0.04151890450000
