  51
        -58.13186137
 C         -7.9119338814        1.9855702609       -0.0053932849
 C         -6.8624352319        1.3307684908        0.8848978105
 C         -6.1940628435        0.1174250664        0.2368670105
 C         -5.4232322641        0.4149342145       -1.0514325190
 C         -4.2988035628        1.4418581956       -0.9102291436
 C         -3.1996581123        1.0102851838        0.0580117941
 C         -2.0329952216        1.9955151020        0.0534855270
 C         -0.9690085182        1.6823061498        1.1062691528
 C         -0.2762493864        0.3275370377        0.9425752851
 C          0.4103495524        0.1057278916       -0.4065493075
 C          1.4871286111        1.1315862185       -0.7602756234
 C          2.7024565895        1.0945286657        0.1752332364
 C          3.3983842733       -0.2316773389        0.1423224797
 C          3.2423263287       -1.2165250688        1.1565563525
 C          3.9361166109       -2.3592049946        0.9331869961
 C          4.0069884472       -3.5864781579        1.7703021316
 S          4.8196358376       -2.2558815344       -0.5589814112
 C          4.2264103926       -0.6471855709       -0.8562328589
 C          4.6410247764        0.0676035194       -2.0945003997
 H         -8.4265620183        2.7763219721        0.5363577371
 H         -8.6502874315        1.2529351869       -0.3249084222
 H         -7.4564288814        2.4234850026       -0.8897458727
 H         -7.3416330463        0.9997996788        1.8100178952
 H         -6.1060630258        2.0681722621        1.1583091774
 H         -6.9651045894       -0.6225403187        0.0057853801
 H         -5.5171643801       -0.3376587459        0.9627201294
 H         -6.1218482532        0.7653286706       -1.8137646316
 H         -4.9951641440       -0.5239649522       -1.4130690450
 H         -4.7098966644        2.4007091482       -0.5894813001
 H         -3.8540784340        1.5960821000       -1.8974402677
 H         -2.8471461624        0.0177372775       -0.2282709541
 H         -3.6026151064        0.9451436205        1.0703340467
 H         -2.4216975593        2.9985901851        0.2508585825
 H         -1.5782135616        2.0156031220       -0.9385577043
 H         -1.4378125406        1.7045734384        2.0940115435
 H         -0.2183859911        2.4754780597        1.0896409338
 H         -1.0095336439       -0.4690016330        1.0848717467
 H          0.4597331051        0.2259526542        1.7424121862
 H         -0.3435619433        0.1095464214       -1.1962027961
 H          0.8654726120       -0.8879044379       -0.3982778026
 H          1.0609937921        2.1361025804       -0.7470748659
 H          1.8273806745        0.9326740784       -1.7789428541
 H          2.3873801754        1.3078054968        1.1971791148
 H          3.3982433929        1.8814696408       -0.1286712519
 H          2.6300757021       -1.0666336017        2.0289842091
 H          3.3957031913       -3.4623103209        2.6612586927
 H          5.0343315958       -3.7877118920        2.0736487918
 H          3.6478622886       -4.4533916141        1.2156593611
 H          5.6501742789       -0.2221514097       -2.3805602314
 H          4.6129319196        1.1444277723       -1.9391717840
 H          3.9747992145       -0.1750561063       -2.9242374229
