  23
        -42.29238735
 C         -3.3282675407        3.3696193035       -0.0141496884
 C         -2.0699425561        3.0163934645       -0.2462576200
 C         -1.5126883616        1.6702326145       -0.1765172776
 C         -2.2850840460        0.5430746648        0.1113422043
 C         -1.7327234895       -0.7246304585        0.1543236881
 C         -2.5520364471       -1.9452501204        0.4343213487
 C         -0.3669965618       -0.8515470937       -0.0803959243
 F          0.1618237206       -2.0927906617       -0.0913158786
 C          0.4495131790        0.2434446143       -0.3489818663
 C          1.8862365235        0.1210618530       -0.5881209158
 C          2.7131551746       -0.6948044032        0.0453031648
 F          2.4285719159       -1.5176934622        1.0396460065
 F          4.0175594199       -0.7536494835       -0.2137588414
 C         -0.1516402791        1.4973239590       -0.4108360776
 H         -3.6419084554        4.3962600352       -0.0914094000
 H         -4.0936125331        2.6649126208        0.2613506079
 H         -1.3531986234        3.7825581167       -0.5149304083
 H         -3.3425231912        0.6499989381        0.2939515130
 H         -3.5884757375       -1.6812775920        0.6238587123
 H         -2.1542472322       -2.4738012607        1.2995021575
 H         -2.5086496655       -2.6285604040       -0.4130435500
 H          2.3224444635        0.7756533807       -1.3272931859
 H          0.4651166396        2.3561462844       -0.6317700574
