23
 energy: -42.292387353511 gnorm: 0.000060267476 xtb: 6.5.0 (unknown)
C           -3.32826754070000        3.36961930350000       -0.01414968840000
C           -2.06994255610000        3.01639346450000       -0.24625762000000
C           -1.51268836160000        1.67023261450000       -0.17651727760000
C           -2.28508404600000        0.54307466480000        0.11134220430000
C           -1.73272348950000       -0.72463045850000        0.15432368810000
C           -2.55203644710000       -1.94525012040000        0.43432134870000
C           -0.36699656180000       -0.85154709370000       -0.08039592430000
F            0.16182372060000       -2.09279066170000       -0.09131587860000
C            0.44951317900000        0.24344461430000       -0.34898186630000
C            1.88623652350000        0.12106185300000       -0.58812091580000
C            2.71315517460000       -0.69480440320000        0.04530316480000
F            2.42857191590000       -1.51769346220000        1.03964600650000
F            4.01755941990000       -0.75364948350000       -0.21375884140000
C           -0.15164027910000        1.49732395900000       -0.41083607760000
H           -3.64190845540000        4.39626003520000       -0.09140940000000
H           -4.09361253310000        2.66491262080000        0.26135060790000
H           -1.35319862340000        3.78255811670000       -0.51493040830000
H           -3.34252319120000        0.64999893810000        0.29395151300000
H           -3.58847573750000       -1.68127759200000        0.62385871230000
H           -2.15424723220000       -2.47380126070000        1.29950215750000
H           -2.50864966550000       -2.62856040400000       -0.41304355000000
H            2.32244446350000        0.77565338070000       -1.32729318590000
H            0.46511663960000        2.35614628440000       -0.63177005740000
