  14
        -21.22881326
 C         -2.5391067260       -0.4689455723        0.0000027465
 C         -1.0791269139       -0.2016202557       -0.0000073222
 O         -0.6647097658        1.0756571164       -0.0000024362
 N          0.6908126973        1.1101982439        0.0000017989
 C          1.1161475991       -0.1255263387        0.0000060576
 C          2.5608379968       -0.4622503399        0.0000011067
 C          0.0138437838       -1.0202275891       -0.0000022073
 H         -3.0775554676        0.4746929777       -0.0003938114
 H         -2.8188157479       -1.0420184947        0.8822911556
 H         -2.8187007169       -1.0427234220       -0.8818598286
 H          3.1470784860        0.4516460147        0.0002721807
 H          2.8078773104       -1.0507474915       -0.8822055737
 H          2.8077799304       -1.0512328470        0.8819088140
 H          0.0386580520       -2.0895292209       -0.0000038069
