  23
        -50.74402839
 C          2.8230664811       -2.6847103165        0.6244612224
 C          2.3461755099       -1.7153219587       -0.1438384251
 C          0.9899126056       -1.1781856432       -0.0634217154
 C         -0.0768831605       -2.0193451656        0.2543165954
 C         -1.3801384415       -1.5669951921        0.2582761616
 C         -1.6395301085       -0.2465938406       -0.0873916120
 C         -3.0443380596        0.2830119827       -0.0988354943
 F         -3.9720809039       -0.6823936677       -0.1476966513
 F         -3.3182070136        1.0136759770        1.0007665558
 F         -3.2790492403        1.0921814182       -1.1464097800
 C         -0.5991506520        0.6118646003       -0.4028105376
 C          0.7187071944        0.1659222866       -0.3741547139
 C          1.7657166761        1.1451268108       -0.6682258288
 C          2.9020954775        1.2888696828       -0.0063595805
 F          3.3108261474        0.5918147737        1.0436097344
 F          3.8095785605        2.2147795886       -0.2972158579
 H          3.8287917567       -3.0488957422        0.5094240060
 H          2.2418923551       -3.1277184468        1.4152670054
 H          2.9804478226       -1.2652608877       -0.8971150710
 H          0.1248530578       -3.0547806048        0.4791186841
 H         -2.1928577266       -2.2320548496        0.5051267114
 H         -0.8119127329        1.6385729158       -0.6608298898
 H          1.5713531954        1.8600804203       -1.4538847601
