  26
        -46.99705593
 C         -2.0625309923       -3.1568596520       -0.2326646022
 C         -2.1807832315       -1.8524824166       -0.4503048285
 C         -1.1205250027       -0.8747281142       -0.2306835875
 C          0.2218704316       -1.2486631452       -0.2691115586
 C          1.2519573006       -0.3444072252       -0.0604948990
 C          2.6355634590       -0.9165298599       -0.0405026136
 O          3.0221867327       -1.7247849466       -0.8352812471
 O          3.4118161561       -0.5337793968        0.9922778132
 C          0.9639745179        1.0121104508        0.1580235271
 C          1.9845815171        2.0577022875        0.2318146662
 C          3.1137888602        2.0605953046       -0.4657480354
 C         -0.3765946991        1.3830774981        0.2362783369
 C         -1.4096608612        0.4736546170        0.0473359912
 C         -2.8143585604        0.9886171396        0.1163868735
 O         -3.6747335780        0.7290064756       -0.6750845360
 O         -3.0619025272        1.8176980877        1.1494440515
 H         -2.8844618114       -3.8266184664       -0.4161783843
 H         -1.1607468122       -3.6070568032        0.1481186437
 H         -3.1194077152       -1.4481648595       -0.7989606874
 H          0.4868813251       -2.2725451059       -0.4820333047
 H          3.0001521745        0.1554435039        1.5301947371
 H          1.7292662564        2.9103030504        0.8497023265
 H          3.3773867264        1.2580865318       -1.1347699488
 H          3.8103027062        2.8785152041       -0.4034413960
 H         -0.6079661728        2.4297120578        0.3910816444
 H         -2.2975671041        1.9285991163        1.7304015055
