  23
        -37.89388355
 C          3.8365924488        0.6317963576        0.9015492172
 C          3.1749193587        0.7140031186       -0.4672918962
 O          1.7564499628        0.8021015058       -0.3540310751
 C          1.0907659893       -0.3399457247       -0.2096873700
 O          1.6060031182       -1.4364625570       -0.1931474028
 C         -0.3540379126       -0.1246560912       -0.0849219275
 N         -0.9515059601        1.1154639562       -0.0887481332
 C         -2.2128493232        0.8909907595        0.0415457932
 C         -3.2980671811        1.8951851087        0.0954879991
 O         -2.5160342087       -0.4285404133        0.1344819263
 C         -1.3335619997       -1.0779673140        0.0546423216
 C         -1.2875265779       -2.5539998938        0.1217932769
 H          4.9168029075        0.6372055756        0.7865612737
 H          3.5396620990       -0.2868667400        1.4016226700
 H          3.5376813153        1.4798894212        1.5126714337
 H          3.4315055060       -0.1683194729       -1.0638182673
 H          3.4737190749        1.6222473139       -0.9945946075
 H         -2.8624687605        2.8848759166        0.0086026232
 H         -3.8396279675        1.8124014713        1.0363687709
 H         -4.0025061479        1.7304389554       -0.7181705180
 H         -1.7149021692       -2.9021916203        1.0613461163
 H         -0.2526514277       -2.8738316916        0.0469934725
 H         -1.8669919713       -2.9867952745       -0.6928499373
  23
        -37.89035589
 C          3.8197133026       -0.3258956638       -0.9481887498
 C          3.1500453497       -0.6362437719        0.3831510541
 O          1.7298619360       -0.7060825378        0.2532595931
 C          1.0695865749        0.4707594257        0.2724987071
 O          1.6079048594        1.5363650669        0.4128607663
 C         -0.3715302873        0.2519481006        0.1111150221
 N         -1.2750895251        1.2890024561        0.1062452668
 C         -2.4304276680        0.7440713297       -0.0552782523
 C         -3.7392134589        1.4293691006       -0.1298847784
 O         -2.3714999504       -0.6077831076       -0.1623639694
 C         -1.0630943484       -0.9245295409       -0.0569662258
 C         -0.6529334253       -2.3448850938       -0.1333921637
 H          4.8988247490       -0.3370277626       -0.8246164399
 H          3.5144680692        0.6586051088       -1.2934977981
 H          3.5388911840       -1.0659009318       -1.6940256806
 H          3.4013385791        0.1349722587        1.1187469709
 H          3.4481859380       -1.6187849809        0.7555393605
 H         -3.5784030871        2.4971460510       -0.0264671795
 H         -4.3938821918        1.0769956447        0.6655278235
 H         -4.2193279411        1.2199965399       -1.0843891829
 H         -1.5279405967       -2.9658023279       -0.3073741790
 H         -0.1691311013       -2.6462564434        0.7939057724
 H          0.0644053216       -2.4852112514       -0.9394190438
  23
        -37.88957937
 C          3.9008531526       -1.4448274717        0.3923016700
 C          3.1994716800       -0.1647838262       -0.0215807869
 O          1.7896878409       -0.3734265873        0.0730965298
 C          1.0198069980        0.6882928645       -0.2366366309
 O          1.4673063872        1.7524322604       -0.5732069747
 C         -0.4010774303        0.3515741814       -0.1021209301
 N         -1.4012921746        1.2593597309       -0.3610537356
 C         -2.5051953883        0.6328704959       -0.1446114893
 C         -3.8777970079        1.1670918549       -0.2812519271
 O         -2.3198414670       -0.6531872972        0.2482503613
 C         -0.9822277926       -0.8357180208        0.2765069078
 C         -0.4382440068       -2.1548086076        0.6711506132
 H          4.9762932794       -1.3091197298        0.3260050451
 H          3.6050036480       -2.2622020800       -0.2597720070
 H          3.6378888684       -1.7030330226        1.4145812033
 H          3.4480658174        0.1114806982       -1.0525710333
 H          3.4783950589        0.6724241816        0.6282191012
 H         -3.8172261465        2.2053463770       -0.5895528570
 H         -4.4056339420        1.0945855772        0.6682026219
 H         -4.4316283911        0.5948165029       -1.0237638424
 H         -1.2566187218       -2.8220240239        0.9287135431
 H          0.2297559349       -2.0451929642        1.5228888837
 H          0.1388827556       -2.5825887273       -0.1464399645
