23
 energy: -42.067302533363 gnorm: 0.000075627163 xtb: 6.4.1 (23d549d)
C         4.78551324880000    0.07568071640000    0.09838112180000
C         3.58786515560000    0.64882041170000    0.05730949410000
C         2.30192615250000   -0.03095730640000   -0.01155447970000
C         2.16109987710000   -1.42311281470000   -0.03609909740000
C         0.92090860160000   -2.02151504110000   -0.09303311050000
C        -0.25571675040000   -1.26338358390000   -0.13473483770000
C        -1.58196645270000   -1.86098321210000   -0.18413350080000
C        -1.87934172300000   -3.07481161020000    0.26579229820000
C        -0.09640913470000    0.11876056280000   -0.12721809420000
S        -1.49336012720000    1.20416651730000   -0.14608664910000
O        -1.09471168540000    2.55538297000000    0.03321858750000
O        -2.46202678090000    0.88329286450000   -1.13579079660000
F        -2.16586536120000    0.74179110590000    1.28972290450000
C         1.13202757530000    0.73123492120000   -0.05639032350000
H         5.68318882690000    0.66684060020000    0.14939133810000
H         4.92607004250000   -0.99139830510000    0.08307810390000
H         3.51929766090000    1.72879697220000    0.07533705150000
H         3.04036956690000   -2.04747775860000   -0.00898456790000
H         0.85128608810000   -3.09772435080000   -0.12147076400000
H        -2.35366432480000   -1.23154691760000   -0.60118356020000
H        -1.14942225880000   -3.71861183190000    0.72831185750000
H        -2.88236904710000   -3.45932226690000    0.20777915610000
H         1.16221735010000    1.80927268370000   -0.03208698430000
