  21
        -40.73057547
 C          2.6454027511       -1.6274030065        0.1242784612
 C          1.2274777149       -1.1677588280        0.0510164703
 S         -0.0312198618       -2.3477375560        0.1147180965
 C         -1.2605204598       -1.1357609614        0.0303970745
 C         -2.6821835576       -1.5540122135        0.0046516404
 C         -0.7263415826        0.1265530457       -0.0013035978
 C         -1.6564456548        1.2991373988       -0.0859325008
 O         -2.7562896110        1.1704204532       -0.5633069491
 O         -1.2654582607        2.4587867600        0.4153853690
 C          0.7143526842        0.1064795098       -0.0050308052
 C          1.5861292609        1.2995566770       -0.0203412709
 O          1.3431325065        2.3118675411        0.5959518951
 O          2.7080551051        1.2179115002       -0.7417112148
 H          2.7000491977       -2.5391289040        0.7159031769
 H          3.2863431835       -0.8803153745        0.5889357074
 H          3.0363463812       -1.8652438914       -0.8678071498
 H         -3.0721025684       -1.4776555655       -1.0104370365
 H         -3.2857905854       -0.8917913582        0.6215866102
 H         -2.7860534195       -2.5806280933        0.3488791659
 H         -0.3190669022        2.4951205505        0.6930824132
 H          2.7789096362        0.3943377408       -1.2419880493
