  23
        -42.28947532
 C         -4.6281668990       -0.2693935453       -0.0955997595
 C         -3.4900265868        0.4149620914       -0.1047960737
 C         -2.1435233903       -0.1387502046       -0.0651757464
 C         -1.8741337840       -1.5078748791       -0.0092599556
 C         -0.5793105667       -1.9758065837        0.0240879007
 C          0.5160653106       -1.1102017680        0.0038956316
 C          1.8817319440       -1.6274069861        0.0309804982
 C          2.2448669315       -2.7380337750        0.6592652633
 C          0.2441625349        0.2642480795       -0.0548733471
 C          1.3753433586        1.2541752373       -0.0623518202
 F          2.1163471985        1.1911403392       -1.1886402988
 F          0.9609906316        2.5268638580        0.0270024650
 F          2.2356163680        1.0752972787        0.9576756653
 C         -1.0569873767        0.7356291442       -0.0857533380
 H         -5.5796568468        0.2324623651       -0.1269731444
 H         -4.6651909922       -1.3444322499       -0.0570694573
 H         -3.5284700459        1.4963317727       -0.1450871050
 H         -2.6882265375       -2.2153078452        0.0032994277
 H         -0.3977879697       -3.0392487219        0.0452645035
 H          2.6287710942       -1.0458735482       -0.4905674586
 H          1.5486172375       -3.3325136332        1.2268167442
 H          3.2654095396       -3.0784396592        0.6486226425
 H         -1.2345985149        1.8002455487       -0.1247653127
