  46
        -81.57963524
 C         -2.9940193935       -1.3049469619       -2.3528151306
 O         -2.1631164369       -1.8101829605       -1.3166963856
 C         -0.8549933930       -1.5469221997       -1.3987289802
 C         -0.1138398587       -2.1467214454       -0.2559001435
 C          0.8821333949       -1.4241316687        0.4188612215
 N          1.1084896856       -0.0725296886        0.1469822223
 C          0.0455733213        0.7854431772       -0.1005780794
 C         -1.1828298665        0.5790552267        0.5323727917
 C         -2.2471295007        1.4189301877        0.2560279725
 C         -3.5803790375        1.1760491880        0.8992444483
 F         -3.5280701431        0.3478483189        1.9513593945
 F         -4.1570186194        2.3091893116        1.3377447682
 F         -4.4650120255        0.6279894720        0.0372489829
 C         -2.1189463006        2.4781161410       -0.6339831155
 C         -0.8931981837        2.6909718758       -1.2428525009
 C          0.1767050160        1.8586371221       -0.9851122795
 C          2.4318361653        0.4016025787        0.1033145262
 C          3.4366029598       -0.3718115366       -0.4713059639
 C          4.7378300417        0.0893071721       -0.4969521682
 C          5.0726180787        1.3279751145        0.0379901961
 C          6.4819307914        1.8324505950       -0.0192488055
 C          4.0624571151        2.0946884887        0.6062596141
 C          2.7584779936        1.6411382518        0.6467945819
 C          1.6327309868       -2.0697019917        1.4019233472
 C          1.3900212891       -3.3912414406        1.7182076798
 C          0.3804797496       -4.0921476090        1.0757857861
 C         -0.3671636637       -3.4675225360        0.0952977206
 O         -0.3451834253       -0.9260556687       -2.2987108881
 H         -3.1091216935       -2.0606029532       -3.1322584200
 H         -2.5477447703       -0.4062471370       -2.7833764197
 H         -3.9574724307       -1.0776947042       -1.9022094472
 H         -1.3037912335       -0.2335995952        1.2327963009
 H         -2.9624293279        3.1178605646       -0.8396351586
 H         -0.7784465061        3.5061180795       -1.9403993982
 H          1.1188993764        2.0144160528       -1.4866676715
 H          3.1878017669       -1.3305867610       -0.9008548568
 H          5.5070468606       -0.5207916152       -0.9478760444
 H          7.1910733912        1.0108720973        0.0510432838
 H          6.6753819911        2.5370663748        0.7860523502
 H          6.6558701157        2.3456476185       -0.9657363212
 H          4.3007723777        3.0584123162        1.0327813252
 H          1.9870509616        2.2440939262        1.1031385883
 H          2.4022119618       -1.5163645798        1.9194328895
 H          1.9806895665       -3.8728737387        2.4829373786
 H          0.1810500544       -5.1200403847        1.3355374615
 H         -1.1451666932       -4.0041934907       -0.4253880629
  46
        -81.57844433
 C          2.4114784991       -1.5483988744        2.7959942166
 O          1.4968321452       -1.9129006849        1.7738198386
 C          2.0305426571       -2.5054050914        0.6954899109
 C          0.9903108393       -2.8731130540       -0.3029845087
 C         -0.0342145525       -1.9990364867       -0.6920336913
 N         -0.0605899226       -0.6680211352       -0.2622331309
 C         -1.2659114594       -0.0641082934        0.0632718034
 C         -1.4697044130        1.2959416400       -0.1749566803
 C         -2.6753661854        1.8842816109        0.1707774206
 C         -2.8321694685        3.3532954607       -0.0948142464
 F         -1.9735869853        4.0933778153        0.6355338007
 F         -2.5860093573        3.6700809169       -1.3803333826
 F         -4.0570475299        3.8209788865        0.1802287560
 C         -3.7012005370        1.1472771461        0.7449960434
 C         -3.4987062268       -0.2051296170        0.9723177981
 C         -2.3012225075       -0.8055133308        0.6431918271
 C          1.1433309971        0.0603295589       -0.2074176329
 C          2.1348953802       -0.1507258683       -1.1626304085
 C          3.3272763436        0.5400862543       -1.0893029414
 C          3.5629606565        1.4642030420       -0.0771024762
 C          4.8670584550        2.1977237072       -0.0114348867
 C          2.5639259516        1.6776768571        0.8636296251
 C          1.3696536234        0.9845543470        0.8080744371
 C         -1.0050182631       -2.4606695176       -1.5825282264
 C         -0.9551602001       -3.7480864288       -2.0783617702
 C          0.0810601929       -4.5975468593       -1.7207480726
 C          1.0506784687       -4.1535140826       -0.8422814130
 O          3.2012817003       -2.7672724877        0.5914469136
 H          1.8126310252       -1.1588416153        3.6148866451
 H          3.1004610801       -0.7855019412        2.4276455938
 H          2.9859427861       -2.4194307816        3.1178462595
 H         -0.6935060502        1.8896998256       -0.6334402013
 H         -4.6332807250        1.6207507585        1.0073975136
 H         -4.2835881205       -0.7924541184        1.4233224950
 H         -2.1480427980       -1.8555047240        0.8415593066
 H          1.9692662965       -0.8599849915       -1.9601734103
 H          4.0892638197        0.3609082009       -1.8332394444
 H          5.6892738264        1.4942954324        0.1152744218
 H          4.8786574592        2.8998941976        0.8181796260
 H          5.0406330903        2.7472024780       -0.9356516588
 H          2.7229489644        2.3888435275        1.6615543478
 H          0.6129055944        1.1478290079        1.5609248006
 H         -1.7923348981       -1.7893080291       -1.8924818623
 H         -1.7171128863       -4.0829896172       -2.7660903025
 H          0.1316441222       -5.5962461222       -2.1252433226
 H          1.8655407776       -4.7963686915       -0.5456261409
  46
        -81.57841781
 C          2.1239368748       -0.7677959956        2.9992297643
 O          1.2577311605       -1.0958823465        1.9241459466
 C          1.6789278089       -2.0734437514        1.1090224831
 C          0.6834630228       -2.3671656853        0.0425086159
 C          0.0488088272       -1.3647089271       -0.7031069820
 N          0.4189137842       -0.0194210247       -0.5821807995
 C         -0.5504624398        0.9721264745       -0.6034499063
 C         -1.8177481711        0.7274120979       -0.0715873617
 C         -2.7852972798        1.7179072610       -0.1076537476
 C         -4.1342860318        1.3927219351        0.4647125721
 F         -4.0608144433        0.9630214401        1.7385228735
 F         -4.9815043806        2.4305549574        0.4657955670
 F         -4.7483072351        0.4061508813       -0.2199054754
 C         -2.5221888334        2.9652120145       -0.6560154203
 C         -1.2604373607        3.2076471900       -1.1760405111
 C         -0.2875121317        2.2296090109       -1.1572938178
 C          1.7816267756        0.3098958698       -0.4663417638
 C          2.7417920147       -0.4217457926       -1.1618657220
 C          4.0809322384       -0.1197815792       -1.0216461627
 C          4.5025417195        0.9194875266       -0.1993016939
 C          5.9618927823        1.2212153520       -0.0488981238
 C          3.5380814480        1.6520726862        0.4802817788
 C          2.1943366610        1.3538563911        0.3564624897
 C         -0.9253163114       -1.7353422619       -1.6311223343
 C         -1.2554406489       -3.0628643905       -1.8175727852
 C         -0.5990967966       -4.0548506926       -1.1047913927
 C          0.3707079597       -3.7028678859       -0.1857257218
 O          2.7061318041       -2.6804857931        1.2724574797
 H          1.5869470767       -0.0504067767        3.6140472485
 H          3.0477260362       -0.3295407979        2.6154849447
 H          2.3684154551       -1.6629769893        3.5746107681
 H         -2.0416369235       -0.2296808955        0.3744754703
 H         -3.2856987432        3.7257976888       -0.6748972055
 H         -1.0401868903        4.1699201622       -1.6118715063
 H          0.6855882384        2.4266722130       -1.5810728864
 H          2.4347191696       -1.2305517649       -1.8083845410
 H          4.8138828507       -0.7007787736       -1.5614334230
 H          6.4698120269        0.3864233014        0.4333259196
 H          6.1164263552        2.1140052876        0.5517044882
 H          6.4232200357        1.3707297761       -1.0238848322
 H          3.8403994453        2.4616308083        1.1294856759
 H          1.4594633450        1.9181923142        0.9111527728
 H         -1.4141067086       -0.9680386730       -2.2133093302
 H         -2.0151322762       -3.3253835513       -2.5381760134
 H         -0.8430262292       -5.0932962297       -1.2650527503
 H          0.8925367646       -4.4561138532        0.3848724280
  46
        -81.57829527
 C          1.7277637502       -0.9001574472       -3.5175356048
 O          1.0494955865       -1.4826508764       -2.4152245047
 C          1.7922165367       -2.2641143170       -1.6174617080
 C          0.9845015529       -2.8491369972       -0.5129857548
 C          0.0900301981       -2.0938903764        0.2579669261
 N          0.0034434100       -0.7042290923        0.1229329053
 C         -1.2292023234       -0.0719644373        0.1974806707
 C         -1.3407940227        1.2050722196        0.7531163433
 C         -2.5764706692        1.8239960285        0.8068237509
 C         -2.7150275668        3.1925836773        1.4078863869
 F         -1.5455704293        3.7553231352        1.7419351650
 F         -3.3241822723        4.0556838010        0.5727745873
 F         -3.4613797367        3.1804489671        2.5304086120
 C         -3.7215567059        1.1968673742        0.3297184828
 C         -3.6085059119       -0.0718487794       -0.2135398360
 C         -2.3815845572       -0.7000553854       -0.2848496484
 C          1.1835314100        0.0448112391       -0.0461368155
 C          1.2050716493        1.1583763040       -0.8804580674
 C          2.3746155169        1.8735404834       -1.0551718649
 C          3.5490241932        1.4971570737       -0.4166736014
 C          4.8247490729        2.2554865473       -0.6177095888
 C          3.5175955741        0.3842074551        0.4166626697
 C          2.3539655926       -0.3324140552        0.6080820502
 C         -0.6758732169       -2.7469078559        1.2251954595
 C         -0.5511348024       -4.1069168843        1.4265641986
 C          0.3619410569       -4.8442856532        0.6877908555
 C          1.1289041666       -4.2109333218       -0.2712258769
 O          2.9525976533       -2.5122796389       -1.8220663456
 H          0.9694926590       -0.3914941267       -4.1068285161
 H          2.2224511453       -1.6733899348       -4.1087857497
 H          2.4780298928       -0.1904394917       -3.1628568097
 H         -0.4659344945        1.7028671222        1.1419218267
 H         -4.6748662531        1.6979113247        0.3832411719
 H         -4.4863633829       -0.5700422461       -0.5948585514
 H         -2.2994525982       -1.6821329805       -0.7253687298
 H          0.3064558916        1.4519505168       -1.4025259687
 H          2.3735101703        2.7328903722       -1.7104321411
 H          4.6685264814        3.1199175022       -1.2578831834
 H          5.5762235817        1.6135158446       -1.0762155974
 H          5.2189984076        2.5961854251        0.3386027364
 H          4.4188198419        0.0757925936        0.9253978622
 H          2.3491356396       -1.1906386402        1.2638084380
 H         -1.3612467681       -2.1691972465        1.8278313230
 H         -1.1539028342       -4.5903428355        2.1806617771
 H          0.4745849670       -5.9031037977        0.8603647264
 H          1.8442218788       -4.7631671762       -0.8616603757
  46
        -81.57809684
 C          3.7829563358       -2.3926390609        1.9321131654
 O          2.7151635146       -2.6936402432        1.0465930866
 C          1.6344042068       -1.9081697867        1.1474466913
 C          0.5840076318       -2.3021203345        0.1706369986
 C         -0.0948792584       -1.3364576794       -0.5869171417
 N          0.3040420273        0.0038820748       -0.5724446489
 C         -0.6412585246        1.0189588054       -0.5893886225
 C         -1.8888830648        0.8337090755        0.0093975568
 C         -2.8306946825        1.8477732200       -0.0313089960
 C         -4.1554733479        1.6197599611        0.6371214269
 F         -4.6109026449        0.3657368121        0.4679347825
 F         -4.0970483904        1.8159220663        1.9693836258
 F         -5.1216481851        2.4340419059        0.1846207763
 C         -2.5555976617        3.0653178598       -0.6394235198
 C         -1.3127617474        3.2497321282       -1.2232739762
 C         -0.3682082879        2.2439059638       -1.2067007892
 C          1.6776049291        0.3080044031       -0.5343223844
 C          2.5819672903       -0.4636718007       -1.2579949389
 C          3.9366673345       -0.1993566354       -1.1844883170
 C          4.4228011678        0.8391647136       -0.4013058345
 C          5.8906080099        1.1318471190       -0.3254014972
 C          3.5094589735        1.6144201169        0.3060890353
 C          2.1555668334        1.3561139952        0.2480741455
 C         -1.1408854552       -1.7463687833       -1.4152081893
 C         -1.5014425917       -3.0765721689       -1.4892062912
 C         -0.8105396399       -4.0320850214       -0.7591857861
 C          0.2309786342       -3.6421627744        0.0613060375
 O          1.5269505995       -1.0251847173        1.9602491895
 H          4.5219379721       -3.1781076430        1.7972074315
 H          3.4264647636       -2.3686752144        2.9637870064
 H          4.2085948721       -1.4179145452        1.6828083208
 H         -2.1167247529       -0.0964137878        0.5069401798
 H         -3.2991614659        3.8455939461       -0.6579533044
 H         -1.0845996462        4.1873482404       -1.7062310929
 H          0.5906316083        2.3946870020       -1.6791973876
 H          2.2224455872       -1.2779686078       -1.8704628778
 H          4.6252373679       -0.8138684718       -1.7464808954
 H          6.4761334267        0.2763111624       -0.6531496099
 H          6.1804947343        1.3905499453        0.6911212274
 H          6.1369313580        1.9782765943       -0.9672456465
 H          3.8681352614        2.4220676515        0.9275702408
 H          1.4632871218        1.9453491044        0.8291371107
 H         -1.6613347195       -1.0087070211       -2.0078866887
 H         -2.3159444624       -3.3717288125       -2.1332317883
 H         -1.0845798341       -5.0731674587       -0.8287772386
 H          0.7713259526       -4.3716782147        0.6447673309
  46
        -81.57776084
 C         -1.0246241075        0.4803573133        3.3188538772
 O         -0.3112387471       -0.3374357361        2.4045699201
 C         -1.0459092612       -1.2373742840        1.7299869344
 C         -0.2116585180       -2.0627904865        0.8163511193
 C          0.7972009813       -1.5225110841        0.0059168871
 N          1.0074460770       -0.1422955103       -0.0841300732
 C         -0.0660401148        0.7354576500       -0.1425993467
 C         -1.2694528729        0.3383652086       -0.7316331279
 C         -2.3402088108        1.2129212257       -0.7615256655
 C         -3.6319789742        0.8071661653       -1.4095563426
 F         -3.6884226136       -0.4879299023       -1.7396302108
 F         -4.6973870985        1.0556410096       -0.6299389124
 F         -3.8507799520        1.4929320304       -2.5541301058
 C         -2.2430202728        2.4935798617       -0.2306542879
 C         -1.0437834150        2.8893989387        0.3375283644
 C          0.0322553034        2.0259756251        0.3849609072
 C          2.3285312464        0.3381004664       -0.1215586826
 C          2.6866209779        1.3730717566       -0.9807268810
 C          3.9898491304        1.8309153640       -1.0104876998
 C          4.9676834274        1.2685484917       -0.1995890085
 C          6.3857690501        1.7483119800       -0.2500975954
 C          4.6021131862        0.2302125546        0.6503069531
 C          3.3017278275       -0.2304600464        0.6963766424
 C          1.5839455555       -2.3895796922       -0.7525850619
 C          1.3621265619       -3.7520737765       -0.7245224169
 C          0.3329659242       -4.2791569931        0.0410286023
 C         -0.4505092743       -3.4329099168        0.8019515292
 O         -2.2279118167       -1.3875123579        1.9009578975
 H         -0.2837834219        1.1096249734        3.8048076583
 H         -1.5469913470       -0.1376702324        4.0518891123
 H         -1.7572256929        1.0906680901        2.7864198604
 H         -1.3661378340       -0.6468205864       -1.1615049084
 H         -3.0913718117        3.1584390425       -0.2631393706
 H         -0.9526300574        3.8788014727        0.7588740373
 H          0.9565071426        2.3361876308        0.8479438442
 H          1.9408700620        1.8141189870       -1.6257985092
 H          4.2518920261        2.6347763780       -1.6831322143
 H          6.4457183230        2.7410071794       -0.6890350427
 H          6.9879210547        1.0713409963       -0.8569474206
 H          6.8195857658        1.7759934030        0.7472961427
 H          5.3469121852       -0.2182468022        1.2917922246
 H          3.0276328330       -1.0299695302        1.3684798770
 H          2.3653689205       -1.9769581730       -1.3734618878
 H          1.9826116642       -4.4044965939       -1.3203476024
 H          0.1451949920       -5.3413349652        0.0449157045
 H         -1.2524365568       -3.8188844101        1.4127055937
