  34
        -42.53512839
 C          2.0366717023       -3.2526721946       -0.7000579994
 C          2.2427023212       -2.1220229872       -0.0376278659
 C          1.3153307616       -0.9909551118        0.0084194201
 C         -0.0566481602       -1.2160966641       -0.0070154026
 C         -0.9823378600       -0.1857341495        0.0833853174
 C         -2.4781726717       -0.4596945172        0.0147890183
 C         -2.8281381175       -1.8211263428        0.6290619268
 C         -3.2844570018        0.6103808582        0.7610224976
 C         -2.8861090682       -0.4544785912       -1.4657148273
 C         -0.4843871184        1.1050761203        0.1916552039
 C          0.8786930103        1.3802454693        0.2090789650
 C          1.3439189103        2.7582140779        0.3715557898
 C          0.7316615108        3.8322456535       -0.1092643513
 C          1.7998463053        0.3251687515        0.0971577909
 N          3.1611134996        0.5768465013        0.0842037955
 H          2.7469497467       -4.0617012227       -0.6745529437
 H          1.1574045584       -3.4110273505       -1.3017780451
 H          3.1542786548       -2.0063657056        0.5372228149
 H         -0.3863854599       -2.2399724112       -0.0676234810
 H         -2.4143640079       -1.9047398974        1.6315242321
 H         -2.4513465239       -2.6422488418        0.0255609735
 H         -3.9089247704       -1.9309051186        0.6924001464
 H         -2.9159909004        0.7262820533        1.7778665756
 H         -4.3317050690        0.3180592221        0.8060800508
 H         -3.2351900230        1.5722372895        0.2579453459
 H         -2.3395063884       -1.2191952383       -2.0133659989
 H         -2.6641756007        0.5103100939       -1.9169283905
 H         -3.9519939025       -0.6488598263       -1.5671606672
 H         -1.1556980038        1.9416418620        0.2914604591
 H          2.2537772498        2.8831008634        0.9471958570
 H         -0.1637380585        3.7618249613       -0.7039028122
 H          1.1097310633        4.8254923242        0.0645695147
 H          3.4299202527        1.5087888104       -0.1849861343
 H          3.7338913422       -0.1425734529       -0.3251846075
