34
 energy: -42.535128385010 gnorm: 0.000091617267 xtb: 6.4.1 (23d549d)
C         2.03667170230000   -3.25267219460000   -0.70005799940000
C         2.24270232120000   -2.12202298720000   -0.03762786590000
C         1.31533076160000   -0.99095511180000    0.00841942010000
C        -0.05664816020000   -1.21609666410000   -0.00701540260000
C        -0.98233786000000   -0.18573414950000    0.08338531740000
C        -2.47817267170000   -0.45969451720000    0.01478901830000
C        -2.82813811750000   -1.82112634280000    0.62906192680000
C        -3.28445700180000    0.61038085820000    0.76102249760000
C        -2.88610906820000   -0.45447859120000   -1.46571482730000
C        -0.48438711840000    1.10507612030000    0.19165520390000
C         0.87869301030000    1.38024546930000    0.20907896500000
C         1.34391891030000    2.75821407790000    0.37155578980000
C         0.73166151080000    3.83224565350000   -0.10926435130000
C         1.79984630530000    0.32516875150000    0.09715779090000
N         3.16111349960000    0.57684650130000    0.08420379550000
H         2.74694974670000   -4.06170122270000   -0.67455294370000
H         1.15740455840000   -3.41102735050000   -1.30177804510000
H         3.15427865480000   -2.00636570560000    0.53722281490000
H        -0.38638545990000   -2.23997241120000   -0.06762348100000
H        -2.41436400790000   -1.90473989740000    1.63152423210000
H        -2.45134652390000   -2.64224884180000    0.02556097350000
H        -3.90892477040000   -1.93090511860000    0.69240014640000
H        -2.91599090040000    0.72628205330000    1.77786657560000
H        -4.33170506900000    0.31805922210000    0.80608005080000
H        -3.23519002300000    1.57223728950000    0.25794534590000
H        -2.33950638840000   -1.21919523830000   -2.01336599890000
H        -2.66417560070000    0.51031009390000   -1.91692839050000
H        -3.95199390250000   -0.64885982630000   -1.56716066720000
H        -1.15569800380000    1.94164186200000    0.29146045910000
H         2.25377724980000    2.88310086340000    0.94719585700000
H        -0.16373805850000    3.76182496130000   -0.70390281220000
H         1.10973106330000    4.82549232420000    0.06456951470000
H         3.42992025270000    1.50878881040000   -0.18498613430000
H         3.73389134220000   -0.14257345290000   -0.32518460750000
