  20
        -32.77257892
 C         -0.1123051952        2.5380875391        0.1236323576
 C          0.5736145160        1.2125734056        0.0577552539
 C          1.9600745568        1.1065357511        0.0929690430
 N          2.6132589607       -0.0391864729        0.0367309834
 C          1.9186841410       -1.1545970097       -0.0649535933
 C          0.5271212629       -1.2018266830       -0.0995609320
 C         -0.1881367437       -2.5133136590       -0.2246367043
 C         -0.1499397176        0.0179503305       -0.0271105005
 C         -1.6490074670        0.0611072533       -0.0660199842
 O         -2.2841998004        0.5867893476       -0.9330009630
 O         -2.2588756089       -0.5418117326        0.9750794434
 H          0.6149970889        3.3453938792        0.1041108681
 H         -0.7015765710        2.6201623387        1.0370634291
 H         -0.7939282928        2.6489220461       -0.7175077948
 H          2.5770385556        1.9924720241        0.1658504523
 H          2.4991130366       -2.0662550981       -0.1218380037
 H          0.3980601110       -3.1986509655       -0.8327138648
 H         -1.1668625426       -2.3912571087       -0.6832911487
 H         -0.3188070686       -2.9751068905        0.7557361923
 H         -1.6293151764       -0.9377563264        1.5920021028
