  27
        -43.59973269
 C         -4.4900760506       -0.6299183555        0.2695758107
 C         -3.6333204919        0.2567249349       -0.2211386480
 C         -2.1810611926        0.1543257268       -0.1299749763
 C         -1.5260699353       -1.0650942598       -0.1031809362
 C         -0.1315967159       -1.1431616244       -0.0596847479
 C          0.5301415488       -2.4379188402        0.0461321321
 C          1.6271908481       -2.6672974102        0.7534139769
 C          0.5615428873        0.0703708600       -0.1083499297
 C          2.0463756928        0.1290829769       -0.2797226880
 O          2.6559117081       -0.4272096193       -1.1569845977
 O          2.6148333210        0.9133321966        0.6402967746
 C          4.0179817151        1.0965664552        0.5179760133
 N         -0.0426604638        1.2503145513       -0.0999017681
 C         -1.3671061713        1.3141239910       -0.0854197966
 N         -1.8956572261        2.5729021551       -0.0828357093
 H         -5.5537775681       -0.5076417287        0.1590564552
 H         -4.1642720157       -1.5019766272        0.8110223349
 H         -4.0072329070        1.1317318163       -0.7383858186
 H         -2.1027470221       -1.9785290591       -0.1309478740
 H          0.0336622500       -3.2539930776       -0.4638554275
 H          2.1186735278       -1.8877929093        1.3115963192
 H          2.0711514583       -3.6462958045        0.8069084943
 H          4.3286632312        1.6677268095        1.3890724494
 H          4.2490943123        1.6408811359       -0.3997904131
 H          4.5261578576        0.1299533453        0.4879710217
 H         -1.2304492436        3.3081820369        0.0913331339
 H         -2.8260657292        2.7072308856        0.2717468469
