  20
        -34.89188087
 C          0.0253839839        2.5440598796        0.1564540774
 C         -0.5987989681        1.6987251724       -0.6490520199
 C         -1.0865877717        0.3742442134       -0.2507020188
 C         -2.3901418704        0.0262837215       -0.6003642720
 C         -2.9588631908       -1.1574588272       -0.1725855459
 C         -2.2265797081       -2.0238049484        0.6228282313
 C         -0.9240362361       -1.7084718258        0.9570162968
 C         -0.3322050547       -0.5278432320        0.5122257360
 C          1.0822632272       -0.3190722697        0.8380470330
 C          2.0125837722        0.0708647504       -0.0143346851
 F          1.8427721813        0.3784620063       -1.2942929974
 F          3.3006821838        0.2040504351        0.3005766931
 H          0.3241457621        3.5237689722       -0.1743487793
 H          0.2542051158        2.2935799200        1.1795562195
 H         -0.8473853055        1.9971190193       -1.6593878777
 H         -2.9673459186        0.7138791837       -1.2017103162
 H         -3.9729085174       -1.4015634162       -0.4517575112
 H         -2.6660067784       -2.9453392046        0.9737373541
 H         -0.3407725252       -2.3932629602        1.5555610464
 H          1.4133547921       -0.5835746775        1.8313620488
