  54
        -60.20239347
 C         -2.2949098212       -3.2981888999       -0.2249021358
 C         -2.1014669792       -2.7125535221        1.1690466900
 C         -2.1054976113       -1.1831441915        1.1818389348
 C         -3.4946620185       -0.5941392383        0.9462074769
 C         -3.5321904539        0.9332960856        1.0178647895
 C         -3.0419331998        1.6397728013       -0.2540598485
 C         -1.5536202760        1.5650068184       -0.4681974165
 C         -0.7247857972        2.2385807098        0.4183024427
 C          0.6569026739        2.2562440488        0.2988019445
 C          1.4719070717        3.0214424575        1.3010973665
 C          1.2394520278        1.5754579590       -0.7706448083
 C          2.7258831609        1.5346866337       -1.0094636302
 C          3.3089695355        0.1390067717       -0.7558201912
 C          3.1888008419       -0.2768710069        0.7071337985
 C          3.7902608845       -1.6528848491        0.9968611637
 C          3.1292828744       -2.8146699404        0.2528642832
 C          1.6432117823       -2.9533687173        0.5595172266
 C          0.4103351985        0.9073112237       -1.6616571837
 C         -0.9707535476        0.8817101940       -1.5371382774
 C         -1.7886879750        0.1368415268       -2.5527492755
 H         -2.2217968412       -4.3831487792       -0.1928746023
 H         -1.5295166889       -2.9233880435       -0.9011342625
 H         -3.2709599801       -3.0394225513       -0.6279721098
 H         -1.1457138265       -3.0632456996        1.5633590131
 H         -2.8881742363       -3.0823590112        1.8314141192
 H         -1.4104937043       -0.8148505489        0.4269611516
 H         -1.7445367540       -0.8379874042        2.1542503866
 H         -4.1683894200       -0.9939203060        1.7097214051
 H         -3.8784013438       -0.9135081375       -0.0242009401
 H         -2.9427257498        1.2671729661        1.8739655085
 H         -4.5666148090        1.2438247780        1.1885064287
 H         -3.3140902347        2.6969552711       -0.1730991075
 H         -3.5756917459        1.2299408163       -1.1105588961
 H         -1.1806734160        2.7824624083        1.2348243407
 H          0.8258898061        3.4547401821        2.0609731812
 H          2.0177278843        3.8313998646        0.8174158315
 H          2.1932551608        2.3725858742        1.7945385145
 H          3.2395747894        2.2582485782       -0.3778334221
 H          2.9188643733        1.8054702635       -2.0516282283
 H          4.3623054933        0.1329829615       -1.0479359918
 H          2.7826846884       -0.5801137536       -1.3842103589
 H          2.1377157084       -0.2629953402        0.9998574301
 H          3.7131150958        0.4567929740        1.3258965328
 H          3.7163098768       -1.8412186435        2.0712462826
 H          4.8527270901       -1.6351261552        0.7389904454
 H          3.6398412012       -3.7366431339        0.5433532979
 H          3.2696611476       -2.6939133018       -0.8226051479
 H          1.4841139724       -3.0191353450        1.6340539185
 H          1.2441716154       -3.8538424163        0.0974266608
 H          1.0843788387       -2.1017488082        0.1803293352
 H          0.8638990513        0.3920163409       -2.4981738705
 H         -1.1394729451       -0.3652824381       -3.2664485598
 H         -2.4345313737        0.8198515067       -3.1045553364
 H         -2.4160500460       -0.6133314330       -2.0747113043
