24
 energy: -33.664522920414 gnorm: 0.000040945866 xtb: 6.4.1 (23d549d)
C         0.16749850920000    3.67807983070000   -0.11357738970000
C         0.87925954410000    2.57529360190000    0.08330637250000
C         0.38415588570000    1.20252799410000    0.07766593140000
C        -0.96970119070000    0.88788469630000    0.01480315110000
C        -1.40715155720000   -0.43408498210000    0.01150819960000
C        -2.81817416510000   -0.80101144690000   -0.05104802550000
C        -3.85540597130000    0.02414949720000   -0.12106979000000
C        -0.45519009200000   -1.45289689250000    0.06694046500000
C         0.89841431650000   -1.16288519220000    0.13459662870000
C         1.91545216100000   -2.27669973780000    0.20815645390000
O         3.17793816050000   -1.93335585160000   -0.31045479030000
C         1.30970123920000    0.15998427370000    0.14431702220000
H         0.62731182230000    4.65129046490000   -0.09373923320000
H        -0.89153350650000    3.66398556190000   -0.30645649980000
H         1.94463193920000    2.66513796920000    0.25851634050000
H        -1.69480128560000    1.68367329020000   -0.02321187430000
H        -3.00201969230000   -1.86878200150000   -0.03724782810000
H        -3.75157165450000    1.09535261020000   -0.13938384190000
H        -4.86425561540000   -0.34922903040000   -0.16297751860000
H        -0.77815578900000   -2.48501832380000    0.06123234950000
H         1.51967704200000   -3.17080979560000   -0.29748011660000
H         2.09628394950000   -2.53681448830000    1.25696233940000
H         3.06686089540000   -1.64383467610000   -1.22306310020000
H         2.36618147680000    0.38060268730000    0.20569862450000
