  14
        -25.29557830
 C         -4.2064361173       -0.1484609900        0.0038315106
 C         -2.9911025207        0.3959102422       -0.0014225073
 C         -1.7760874860       -0.3735953776       -0.0021390573
 C         -0.5494147400        0.1737806001       -0.0027642823
 C          0.6592434024       -0.6034184588       -0.0018962998
 C          1.8762286929       -0.0708544613        0.0000853565
 F          2.1557041257        1.2284639927        0.0012497971
 F          3.0073509913       -0.7699252528        0.0014433405
 H         -5.0998549346        0.4510741634        0.0049650323
 H         -4.3449587442       -1.2172203389        0.0075554307
 H         -2.8773568902        1.4721290389       -0.0047926019
 H         -1.8829717896       -1.4506999642       -0.0014612645
 H         -0.4344322188        1.2491523432       -0.0032748324
 H          0.5884803678       -1.6800955536       -0.0024506310
  14
        -25.29295716
 C         -3.6321205080        0.9117840373        0.0038137292
 C         -2.8207697970       -0.1441790092       -0.0013455132
 C         -1.3857851446       -0.0399253573        0.0002550071
 C         -0.5768368661       -1.1135803141       -0.0057729653
 C          0.8644766873       -1.1103227787       -0.0056130818
 C          1.6757458915       -0.0579373111       -0.0000366528
 F          1.3376018959        1.2261833609        0.0068733665
 F          3.0039791700       -0.1572418815       -0.0007651224
 H         -4.7032356862        0.8083851772        0.0022030214
 H         -3.2453256127        1.9174908935        0.0095399329
 H         -3.2319670431       -1.1456840584       -0.0071310344
 H         -0.9799920358        0.9608462535        0.0063473505
 H         -1.0217865612       -2.0998371197       -0.0116026256
 H          1.3607088736       -2.0694908932       -0.0108235052
  14
        -25.29231626
 C         -3.4879666387        0.9404395230       -0.0227967712
 C         -3.1324581641       -0.3424722431        0.0164437839
 C         -1.7828388164       -0.8589526696        0.0115368556
 C         -0.6543154456       -0.1299038460        0.0061896091
 C          0.6542699487       -0.7230077950        0.0017630693
 C          1.7804909887       -0.0182006893       -0.0015437521
 F          1.8667082737        1.3081411620       -0.0014219056
 F          3.0017124126       -0.5441236101       -0.0056870433
 H         -4.5231139503        1.2343531655       -0.0154295702
 H         -2.7684896155        1.7395722454       -0.0654813563
 H         -3.9084557460       -1.0966279115        0.0536554275
 H         -1.6961636119       -1.9383118650        0.0151160961
 H         -0.6905203795        0.9492698240        0.0067430078
 H          0.7426763917       -1.7985494787        0.0012467741
  14
        -25.28938804
 C         -3.7042404997       -0.2462274036       -0.1283888300
 C         -2.7592408736        0.6671395522        0.0848403646
 C         -1.3296395857        0.4474792284        0.0620848242
 C         -0.7299632970       -0.7553609303        0.0555160292
 C          0.6892621930       -1.0071012463        0.0311649927
 C          1.6779001300       -0.1200464678       -0.0086133498
 F          1.5812411614        1.2040215350       -0.0338443521
 F          2.9653333424       -0.4611318048       -0.0284047094
 H         -4.7487346394        0.0103633739       -0.0934909125
 H         -3.4765296335       -1.2734361016       -0.3558229012
 H         -3.0580128405        1.6890928402        0.2810280262
 H         -0.7282072250        1.3447632195        0.0659622437
 H         -1.3361107102       -1.6492293566        0.0791940866
 H          1.0062291220       -2.0395555149        0.0452760544
