  25
        -32.61677787
 C          2.8558172227       -0.0041378511        0.8287643050
 O          2.1331690495       -0.0034527264       -0.3816109142
 C          0.7525709930       -0.0003412010       -0.2063951784
 C          0.0672191061        1.2129803955       -0.1387190789
 C          0.8034208981        2.5163441092       -0.2338019542
 C         -1.3115756288        1.1950910289        0.0164773697
 C         -2.0171535420        0.0053154619        0.1028072872
 C         -3.5089197135       -0.0003369366        0.2543658272
 C         -1.3152502641       -1.1884443351        0.0160194040
 C          0.0622146350       -1.2120182003       -0.1389001881
 C          0.7944406629       -2.5176378302       -0.2342313983
 H          3.9101368965       -0.0102412610        0.5558669337
 H          2.6306528760       -0.8915462781        1.4306961662
 H          2.6397559290        0.8885101079        1.4262958036
 H          1.7672135958        2.3702858630       -0.7149807157
 H          0.9702274000        2.9327346210        0.7607101135
 H          0.2250556285        3.2382263528       -0.8062895797
 H         -1.8424072163        2.1355574498        0.0687251480
 H         -3.8679512632        0.9635471102        0.6063219805
 H         -3.8222419618       -0.7712606389        0.9554505948
 H         -3.9808531993       -0.2100774609       -0.7058867143
 H         -1.8519833983       -2.1255769800        0.0681381939
 H          0.2126357871       -3.2386127521       -0.8043230999
 H          0.9627167365       -2.9331844293        0.7603638528
 H          1.7574817669       -2.3747622437       -0.7178873003
