  26
        -41.23419357
 C         -4.4835230429        0.7207855029       -0.4201599794
 C         -3.6689511552       -0.0777256680        0.2551786240
 C         -2.2107830833       -0.1327669330        0.1391987379
 C         -1.6194394205       -1.3967536404        0.1629645206
 C         -0.2585749890       -1.5948537855        0.0299579933
 C          0.2988875038       -2.9867718584        0.0581960542
 C          0.5685651087       -0.4677066555       -0.1066755461
 C          2.0063414924       -0.6407849328       -0.2618433849
 C          2.9587028798        0.2528772785       -0.0446394428
 F          2.8324671778        1.5033316715        0.3876265852
 F          4.2552466970       -0.0074617046       -0.2267708121
 C         -0.0159866247        0.7965430013       -0.0954419141
 C         -1.3834617128        0.9906632452        0.0232827779
 C         -1.9055666262        2.3952932303        0.0589969418
 H         -5.5517248242        0.6686734667       -0.2915887034
 H         -4.1272977802        1.4310329693       -1.1451577035
 H         -4.0922101775       -0.8149085184        0.9280296157
 H         -2.2629251746       -2.2590966252        0.2735528700
 H         -0.4936919813       -3.7066961049        0.2454362135
 H          1.0486541139       -3.0897679804        0.8411608087
 H          0.7641543817       -3.2369481244       -0.8952626540
 H          2.3598193605       -1.6078862924       -0.5850769523
 H          0.6117686163        1.6681164336       -0.1944298022
 H         -1.1590961992        3.0591790830        0.4899022413
 H         -2.8185700421        2.4590565720        0.6457103316
 H         -2.1208244864        2.7492489092       -0.9492204849
