  45
        -51.80573378
 C         -5.6556285068        1.4519953936       -0.1153102848
 C         -5.6864131404        2.9068624749       -0.5695504350
 C         -4.4350830144        3.3238813839       -1.3433978354
 C         -3.1765782309        3.3708791535       -0.4793938082
 C         -1.9663978409        3.8518380540       -1.2767754804
 C         -0.7119941646        4.0479876041       -0.4233685432
 C         -0.2092749077        2.7906566007        0.2882792261
 C          0.1732286632        1.6618923311       -0.6659810596
 C          0.7929681683        0.4815022498        0.0766249428
 C          1.1641404870       -0.6613276772       -0.8747793842
 C          1.7645012091       -1.8083803337       -0.1236165766
 C          0.9820989163       -2.8146843009        0.5052351091
 C          1.7094292518       -3.7472978244        1.1679140964
 C          1.2345481836       -4.9333759497        1.9293347368
 S          3.4074287620       -3.4047147230        1.0360193814
 C          3.0993016205       -1.9881310457        0.0768198819
 C          4.2348465090       -1.1568017420       -0.4125226540
 H         -6.5978477002        1.1843005321        0.3578548404
 H         -4.8578624505        1.2826614501        0.6030990747
 H         -5.5001047257        0.7915983995       -0.9659734493
 H         -5.8041824629        3.5563429825        0.3010080320
 H         -6.5580895586        3.0553691148       -1.2116873965
 H         -4.6035457022        4.3150459810       -1.7726463201
 H         -4.2779160110        2.6297757233       -2.1728129754
 H         -2.9755470610        2.3766965249       -0.0810960413
 H         -3.3437785410        4.0449500609        0.3644536939
 H         -2.2108728626        4.8096510026       -1.7441203646
 H         -1.7585896076        3.1447091427       -2.0818449823
 H         -0.9183488658        4.8112324392        0.3314430614
 H          0.0860690952        4.4292622214       -1.0658044704
 H         -0.9677324632        2.4333011788        0.9869222893
 H          0.6697151527        3.0633446196        0.8785969050
 H          0.8849036615        2.0389889994       -1.4047870418
 H         -0.7116594889        1.3154302806       -1.2025944612
 H          0.0882147766        0.1093938213        0.8239776787
 H          1.6892405465        0.8113967564        0.6070981399
 H          1.8701270917       -0.2937390747       -1.6219232114
 H          0.2653172637       -1.0017358206       -1.3941532161
 H         -0.0929145137       -2.8350395128        0.4546367050
 H          0.1483472666       -4.9803390187        1.9010074007
 H          1.5572618403       -4.8791123325        2.9690043932
 H          1.6373985070       -5.8521458292        1.5032308445
 H          5.1815318685       -1.5976184173       -0.1110302336
 H          4.1778644600       -0.1466842862       -0.0062094414
 H          4.2168439446       -1.0839035964       -1.5005151949
