23
 energy: -42.287033102012 gnorm: 0.000089202687 xtb: 6.4.1 (23d549d)
C        -4.66448768270000   -0.09302049330000   -0.03558614800000
C        -3.48802331330000    0.51681516430000   -0.12006137160000
C        -2.17756835660000   -0.11872865040000   -0.08363596110000
C        -1.99356773130000   -1.50271608650000   -0.04949766880000
C        -0.72856059310000   -2.04401011840000   -0.00697540950000
C         0.41693071670000   -1.24522643080000    0.02033797870000
C         1.71776607530000   -1.91335144350000    0.12484817650000
C         2.66820908130000   -1.61348465100000    0.99631429060000
C         0.23522828000000    0.14013929210000   -0.05375323680000
C         1.39987476800000    1.08992553820000   -0.12677573500000
F         2.42202274960000    0.63706575210000   -0.86906794340000
F         1.05743456130000    2.27236230810000   -0.66877031530000
F         1.91227307700000    1.39001057240000    1.08512651780000
C        -1.03967420760000    0.68526838190000   -0.09996883610000
H        -5.58440404180000    0.46447492220000   -0.06904157360000
H        -4.76485203220000   -1.15928639180000    0.07297858640000
H        -3.46085786280000    1.59465234830000   -0.21924553910000
H        -2.84797714680000   -2.16077298790000   -0.06185119080000
H        -0.60622659480000   -3.11684365220000    0.02475384590000
H         1.83980368940000   -2.76177216120000   -0.53718887690000
H         2.57104080070000   -0.81088695730000    1.70679141930000
H         3.58475850190000   -2.17612127790000    1.03736189210000
H        -1.15253984380000    1.75796932880000   -0.15713016340000
