  42
        -59.77339258
 C         -2.5659864393        4.5972634659       -1.9667649723
 C         -2.2405300092        3.3459202487       -2.2668759065
 C         -1.2136223299        2.5298959551       -1.6270143013
 C         -0.3231616274        3.0408445193       -0.6893641971
 C          0.6445301270        2.2300610058       -0.0999008010
 C          1.5889878972        2.7189626494        0.9006794540
 C          1.8676168333        3.9900284276        1.1600688226
 C          0.7040619188        0.8867254140       -0.4559188131
 C         -0.1765777622        0.3597518914       -1.3962290990
 O         -0.0252312465       -0.9671248842       -1.6792907112
 C         -1.1299027941       -1.6963259381       -2.1711775286
 C         -0.9369300522       -3.1629876511       -1.7856280245
 C         -1.2406268763       -3.4514053208       -0.3136358100
 C         -0.3950191801       -2.6098311883        0.6403860366
 C         -0.4852826092       -3.0866190379        2.0884605145
 C          0.2257839981       -2.1032768205        3.0275711298
 C          1.6660763694       -1.8620985519        2.6140818862
 O          2.1033652006       -0.7956529308        2.2939168442
 O          2.4567713993       -2.9498685244        2.6368791811
 C         -1.1300013488        1.1803046847       -1.9806981658
 H         -3.3445550244        5.1161154175       -2.4996365889
 H         -2.0816356639        5.1541909328       -1.1834099570
 H         -2.7818650683        2.8443989987       -3.0608166715
 H         -0.3866512776        4.0784969699       -0.4071912337
 H          2.0998807081        1.9372783063        1.4482787086
 H          1.4091041384        4.8078533850        0.6293388979
 H          2.5850493463        4.2634887294        1.9148497184
 H          1.4332291215        0.2346702132       -0.0007581770
 H         -1.1826142522       -1.6039602244       -3.2659029221
 H         -2.0661621093       -1.3134313076       -1.7440410257
 H          0.0991120581       -3.4278217830       -2.0021524226
 H         -1.5866431519       -3.7767930362       -2.4121361853
 H         -1.0495094953       -4.5116902310       -0.1274806329
 H         -2.3003605665       -3.2685897324       -0.1180616235
 H         -0.7203515152       -1.5706399653        0.6005295882
 H          0.6452927378       -2.6365883725        0.3110651337
 H         -0.0542956291       -4.0892620331        2.1744428157
 H         -1.5328760330       -3.1593974683        2.3890621678
 H          0.2145322318       -2.4825819077        4.0535777947
 H         -0.2867510706       -1.1409108842        3.0092624126
 H          1.9752479673       -3.7454394035        2.8989804768
 H         -1.8146421508        0.7868624812       -2.7180049165
