  27
        -49.33591018
 C         -3.3081387732       -1.1831178074        1.5011534985
 C         -2.5854171834       -1.2552932269        0.3951845481
 C         -1.5284688921       -0.2724987860        0.0742186024
 C         -1.9709336288        1.0370690550       -0.1022811278
 C         -1.0917237586        2.0573247266       -0.4060122541
 Cl        -1.6853544666        3.6624336628       -0.6529780868
 C          0.2615876058        1.7989180040       -0.5085935882
 C          0.7349094815        0.5113335353       -0.2967367614
 C          2.1779224506        0.2901101029       -0.3904568650
 C          2.9165979396       -0.4656318384        0.4043858585
 F          2.5389485498       -1.1370098115        1.4785129226
 F          4.2331570230       -0.6094497065        0.2468666287
 C         -0.1569689845       -0.5513076394       -0.0313841391
 O          0.4550590692       -1.7487997692        0.1362270065
 C         -0.2268819925       -2.9804308104        0.0223796197
 C         -0.5624136374       -3.3158752588       -1.4274591377
 H         -4.1095402826       -1.8733521236        1.7020816925
 H         -3.1082590137       -0.4417754455        2.2567127006
 H         -2.8134146842       -2.0017240391       -0.3551123313
 H         -3.0260783675        1.2428745521       -0.0114071347
 H          0.9543682861        2.5941659631       -0.7331255655
 H          2.7062019509        0.8235700906       -1.1668233472
 H         -1.1223631862       -2.9901595605        0.6519876463
 H          0.4846298009       -3.7102274885        0.4188223119
 H         -1.1906308436       -2.5447404730       -1.8682639737
 H         -1.0827775421       -4.2684345193       -1.4747667601
 H          0.3512422115       -3.3835796231       -2.0129483310
