  24
        -33.68068351
 C          3.8027098436       -0.3340562368       -0.0384589744
 C          2.8899783518        0.6290759802        0.0097443182
 C          1.4419864698        0.4661888912        0.0021851072
 C          0.6367859426        1.6054516624        0.0347593150
 C         -0.7439866853        1.5269879767        0.0206179083
 C         -1.5859604540        2.7743771887        0.0505611146
 C         -1.3494340878        0.2684496570       -0.0231844803
 O         -2.7059364280        0.1359602349       -0.0349135332
 C         -0.5677807377       -0.8999170725       -0.0471910526
 C         -1.2432092775       -2.1920059756       -0.0956428451
 C         -0.6946010400       -3.3749820208        0.1501493219
 C          0.8155861675       -0.7750248970       -0.0393746070
 H          4.8551647739       -0.1078606656       -0.0277878261
 H          3.5476785872       -1.3783168223       -0.0914155557
 H          3.2230402269        1.6592027211        0.0595575126
 H          1.1039230074        2.5800727152        0.0676486116
 H         -0.9481418613        3.6534656063        0.0818785536
 H         -2.2282319996        2.7957738840        0.9334168205
 H         -2.2133939402        2.8485258747       -0.8401176921
 H         -3.1122210901        1.0101686401       -0.0179479621
 H         -2.2952292341       -2.1340211828       -0.3391188998
 H          0.3390446930       -3.4935585893        0.4278688196
 H         -1.2726021553       -4.2812691307        0.0912108154
 H          1.4129568389       -1.6703535244       -0.0789482759
