  23
        -36.71947241
 C         -3.8254995343        1.4101993791       -0.3125819815
 C         -3.3846864871        0.2010254574        0.0139106206
 C         -1.9926626762       -0.2237176572        0.0786680732
 C         -1.6990369617       -1.5693386975        0.3158859843
 C         -0.3965355841       -2.0172083624        0.3578328199
 C          0.6784203762       -1.1456387809        0.1779860388
 C          2.0287966742       -1.7035651269        0.1151080947
 C          2.9977502239       -1.2567151327       -0.6746265747
 C          0.3927448860        0.2172797424       -0.0033221392
 C          1.4392118477        1.2821659526       -0.0644296433
 O          1.4112153257        2.1920189412       -0.8450188592
 O          2.3950146497        1.2184847551        0.8857720183
 C         -0.9219927841        0.6547992134       -0.0733901256
 H         -4.8785391594        1.6316375681       -0.3389124322
 H         -3.1665359069        2.2207014266       -0.5716214384
 H         -4.1020282082       -0.5755491351        0.2507210118
 H         -2.5082542360       -2.2720103948        0.4550552985
 H         -0.1955593085       -3.0678561856        0.5115927351
 H          2.1870008916       -2.5934852387        0.7127993878
 H          2.8621986770       -0.4080104471       -1.3247575804
 H          3.9616862409       -1.7344019917       -0.7087636753
 H          2.3246140899        0.4159610197        1.4197969252
 H         -1.0921803054        1.7081579050       -0.2310531540
