  20
        -25.65474672
 C         -2.5198180426       -0.7344026393       -0.0078772385
 C         -1.2135032247        0.0077502740        0.0032950789
 C         -1.1941545196        1.3924138822        0.0007291937
 C         -0.0000212367        2.0898733076        0.0032463519
 C          1.1941290840        1.3924395497        0.0007339414
 C          1.2135015933        0.0077790583        0.0032940596
 C          2.5198178971       -0.7343640396       -0.0078870760
 C          0.0000052990       -0.6949832505        0.0131078573
 N          0.0000464201       -2.0820867652       -0.0439393540
 H         -3.3499527362       -0.0345860644       -0.0572167501
 H         -2.6390660822       -1.3350777840        0.8963125642
 H         -2.5779261996       -1.3991623266       -0.8696962123
 H         -2.1308213891        1.9318251298       -0.0034630315
 H         -0.0000332238        3.1693978269        0.0029853395
 H          2.1307848093        1.9318706428       -0.0034490650
 H          3.3499492539       -0.0345505651       -0.0573179513
 H          2.5778575462       -1.3991875538       -0.8696601869
 H          2.6391247237       -1.3349791616        0.8963360391
 H          0.8413320978       -2.5261623264        0.2865957944
 H         -0.8413796821       -2.5261896627        0.2862074176
