  17
        -32.83453798
 C          1.2603070477       -2.8313771637       -0.4360129586
 C          1.9080932492       -1.8438523238        0.1678800570
 C          1.5200445601       -0.4406345200        0.1387013336
 C          2.4400335554        0.5649496095        0.0781517949
 S          1.7259571014        2.1214313162       -0.0215050579
 C          0.1583627067        1.4386579151        0.0460555642
 C          0.1781542072        0.0736939187        0.1341904773
 C         -0.9911718034       -0.7644441960        0.3017259151
 C         -2.2410416793       -0.4236537665        0.0286668027
 F         -2.6630015873        0.7290117901       -0.4829669730
 F         -3.2863496564       -1.2251883635        0.2244824054
 H          1.6164651010       -3.8460676114       -0.3862665815
 H          0.3732804583       -2.6651172555       -1.0235355594
 H          2.8313275388       -2.0488021553        0.6953284879
 H          3.5077497726        0.4709908321        0.0573019967
 H         -0.6953473047        2.0855933048        0.0407296334
 H         -0.8331706996       -1.7554098941        0.6986769496
