  27
        -49.34094940
 C         -3.1965963629        2.2814900478       -1.1303119758
 C         -3.0857234333        1.2556916849       -0.2972497576
 C         -1.8985422861        0.4089940137       -0.1532384116
 C         -2.1033193407       -0.9464277970        0.0989518764
 C         -1.0339622643       -1.8202458081        0.1537394195
 Cl        -1.3192552059       -3.4979913174        0.4538869478
 C          0.2600793619       -1.3745235304       -0.0402072134
 C          0.4978011319       -0.0183359807       -0.2555145443
 C          1.8312677429        0.5247789115       -0.4602213731
 C          2.9985304800       -0.0831141711       -0.3193612573
 F          3.2320002104       -1.3371061224        0.0483793143
 F          4.1631890108        0.5255625416       -0.5318469975
 C         -0.5855667730        0.8814842348       -0.2929232926
 O         -0.3104104314        2.2158833848       -0.4833077478
 C         -0.5676235575        3.0636005705        0.6289716910
 C          0.3963328672        2.8190579175        1.7848490982
 H         -4.1159656064        2.8350445378       -1.2183263890
 H         -2.3785296006        2.5988970780       -1.7536553356
 H         -3.9403536976        0.9411038244        0.2893796887
 H         -3.1087425009       -1.3173849932        0.2253985472
 H          1.0737508586       -2.0791163001       -0.0161446180
 H          1.8693824094        1.5611785642       -0.7619637382
 H         -1.6014368206        2.9398852778        0.9726357511
 H         -0.4446751728        4.0750924087        0.2349842100
 H          0.2894675150        1.8025689692        2.1587263542
 H          0.1778757594        3.5134306606        2.5912588442
 H          1.4245908025        2.9657847823        1.4640237942
