  46
        -51.58682026
 C         -4.1086473930       -1.7592156058       -0.1687136961
 C         -2.9342210092       -0.8413914361       -0.1821623627
 C         -1.6266276982       -1.1609885354        0.0334997594
 N         -0.8444617082       -0.0391914326       -0.0655557113
 Si         0.8998724834        0.1374983588        0.1617816986
 C          1.0227066012        1.1682417122        1.7865211824
 C          0.5800870903        0.3452356197        2.9964762691
 C          2.3881327505        1.8007556405        2.0434222892
 C          1.6037426398       -1.6437576023        0.3216451522
 C          1.5317989597       -2.4211151397       -0.9934079289
 C          3.0324515156       -1.6840443014        0.8607715665
 C          1.5381163981        1.1666181241       -1.3389529299
 C          3.0514040620        1.0839638034       -1.5376302137
 C          0.8328290250        0.7970171002       -2.6445392401
 C         -1.6891101269        1.0060304430       -0.3446594343
 C         -2.9749685052        0.5622044536       -0.4274307172
 C         -4.1986051107        1.3632900296       -0.7145414056
 H         -3.7925137445       -2.7767935017        0.0477446565
 H         -4.6145401494       -1.7479847193       -1.1342581253
 H         -4.8292410181       -1.4481513701        0.5877201037
 H         -1.1949210385       -2.1148104503        0.2592749827
 H          0.3041746011        1.9898540239        1.6835631818
 H          1.2744789269       -0.4690889227        3.1879271334
 H         -0.4071986468       -0.0781402017        2.8281553504
 H          0.5372591806        0.9687974208        3.8883819613
 H          3.1606769577        1.0423849978        2.1394751972
 H          2.3689193282        2.3797435633        2.9660433502
 H          2.6622289058        2.4698194678        1.2319791974
 H          0.9767144746       -2.1705114680        1.0491082905
 H          2.2255180470       -2.0072753858       -1.7209208633
 H          0.5312173817       -2.3869894983       -1.4164008979
 H          1.8010488319       -3.4647010110       -0.8325878944
 H          3.7153827832       -1.1563213413        0.2010554488
 H          3.3736588451       -2.7155553960        0.9437580518
 H          3.0914657449       -1.2318876725        1.8467670601
 H          1.2986771133        2.2156989151       -1.1285241371
 H          3.3440025549        0.0813499216       -1.8388768490
 H          3.5856245940        1.3385438530       -0.6264491532
 H          3.3677235555        1.7716656969       -2.3212171861
 H          1.0663184155       -0.2237124706       -2.9348208656
 H          1.1547090104        1.4592094285       -3.4473851424
 H         -0.2455069813        0.8818056591       -2.5420787954
 H         -1.3036761541        1.9997873142       -0.4608684606
 H         -3.9411056318        2.4090271548       -0.8641328695
 H         -4.9055530727        1.2916530406        0.1120832849
 H         -4.6966800257        0.9935944871       -1.6109288316
