  27
        -49.33858973
 C         -3.6561933857        1.5940188100       -0.7203792919
 C         -2.3409419083        1.4896263998       -0.8569547735
 C         -1.5217403963        0.3777005283       -0.3831701756
 C         -2.0616834977       -0.8832521317       -0.1452282876
 C         -1.2575871899       -1.9093818882        0.3140586764
 Cl        -1.9504574223       -3.4604303777        0.6359631224
 C          0.0979135678       -1.7183165778        0.5069418518
 C          0.6692930306       -0.4776845578        0.2354033803
 C          2.1204295729       -0.3434202699        0.3878684068
 C          2.9271721982        0.2706042576       -0.4621301891
 F          2.6037489587        0.8681229978       -1.5942077114
 F          4.2461498963        0.3441933510       -0.2880616841
 C         -0.1460957121        0.5848770796       -0.1759248112
 O          0.3746197929        1.8366387040       -0.3923397076
 C          0.7788932990        2.5511605570        0.7659773014
 C         -0.4039215165        2.9880558469        1.6236461992
 H         -4.1905471737        2.4492749806       -1.0964272566
 H         -4.2506842852        0.8464536381       -0.2227783244
 H         -1.7801558819        2.2821195711       -1.3329407993
 H         -3.1098337314       -1.0616696595       -0.3214387288
 H          0.7202393650       -2.5342620492        0.8391098227
 H          2.5843287523       -0.8352746575        1.2299678088
 H          1.3126069240        3.4210852853        0.3764713865
 H          1.4714448526        1.9498285571        1.3700593243
 H         -1.0960523118        3.5857972370        1.0364425897
 H         -0.0467360405        3.5801772302        2.4615248958
 H         -0.9359330144        2.1194557412        2.0070829883
