27
 energy: -49.338589733105 gnorm: 0.000067956726 xtb: 6.5.0 (unknown)
C           -3.65619338570000        1.59401881000000       -0.72037929190000
C           -2.34094190830000        1.48962639980000       -0.85695477350000
C           -1.52174039630000        0.37770052830000       -0.38317017560000
C           -2.06168349770000       -0.88325213170000       -0.14522828760000
C           -1.25758718990000       -1.90938188820000        0.31405867640000
Cl          -1.95045742230000       -3.46043037770000        0.63596312240000
C            0.09791356780000       -1.71831657780000        0.50694185180000
C            0.66929303060000       -0.47768455780000        0.23540338030000
C            2.12042957290000       -0.34342026990000        0.38786840680000
C            2.92717219820000        0.27060425760000       -0.46213018910000
F            2.60374895870000        0.86812299780000       -1.59420771140000
F            4.24614989630000        0.34419335100000       -0.28806168410000
C           -0.14609571210000        0.58487707960000       -0.17592481120000
O            0.37461979290000        1.83663870400000       -0.39233970760000
C            0.77889329900000        2.55116055700000        0.76597730140000
C           -0.40392151650000        2.98805584690000        1.62364619920000
H           -4.19054717370000        2.44927498060000       -1.09642725660000
H           -4.25068428520000        0.84645363810000       -0.22277832440000
H           -1.78015588190000        2.28211957110000       -1.33294079930000
H           -3.10983373140000       -1.06166965950000       -0.32143872880000
H            0.72023936500000       -2.53426204920000        0.83910982270000
H            2.58432875230000       -0.83527465750000        1.22996780880000
H            1.31260692400000        3.42108528530000        0.37647138650000
H            1.47144485260000        1.94982855710000        1.37005932430000
H           -1.09605231180000        3.58579723700000        1.03644258970000
H           -0.04673604050000        3.58017723020000        2.46152489580000
H           -0.93593301440000        2.11945574120000        2.00708298830000
