  56
        -64.41854809
 C          1.0317180077       -3.3899658701       -0.3310621903
 C          1.0849631060       -2.2527037485       -1.0114472289
 C          0.5140757069       -0.9842209211       -0.5619873013
 C         -0.6670842946       -0.9802644465        0.1761320828
 C         -1.2699289296        0.1826288670        0.6231755274
 C         -2.5758256168        0.1071218872        1.3623853484
 C         -3.7459353307        0.6231031237        0.5142828855
 C         -3.9578391365       -0.1638382717       -0.7791579415
 C         -4.3615684838       -1.6283910545       -0.5933290143
 C         -5.6467712295       -1.8528158623        0.2049858542
 C         -6.8751863985       -1.2259967037       -0.4437087735
 C         -0.6650221036        1.4102206869        0.3180102801
 C         -1.2312362679        2.6787468678        0.7733026559
 C         -1.1729076847        3.8192743645        0.0988369099
 C          0.5168462529        1.4064960363       -0.4192128620
 C          1.1166290626        0.2432934784       -0.8700327171
 C          2.4212123174        0.3196541670       -1.6114565658
 C          3.5945562105       -0.1902541433       -0.7643831376
 C          3.8154679039        0.6723163392        0.4753324158
 C          4.8610578340        0.0981445545        1.4319583039
 C          6.2711335511       -0.0255076436        0.8517298263
 C          6.8753194814        1.3142778799        0.4479877387
 H          1.4589447075       -4.3005720055       -0.7158012672
 H          0.5795271922       -3.4527479123        0.6448165355
 H          1.5836320434       -2.2351252612       -1.9722845535
 H         -1.1390668759       -1.9285254522        0.3899788339
 H         -2.5216483416        0.7024126184        2.2779792288
 H         -2.7669423248       -0.9258708440        1.6563830017
 H         -3.5513982283        1.6650157798        0.2486767295
 H         -4.6564265387        0.6013495871        1.1157121660
 H         -3.0307940831       -0.1374694747       -1.3576266067
 H         -4.7228686722        0.3442710335       -1.3695689330
 H         -3.5490168563       -2.1671047358       -0.1030267121
 H         -4.4861291588       -2.0704967935       -1.5853695076
 H         -5.5295637788       -1.4601860229        1.2165946056
 H         -5.8063709853       -2.9307087873        0.2934590995
 H         -6.8017043425       -0.1416396155       -0.4537499657
 H         -7.7734299763       -1.4990129482        0.1060957445
 H         -6.9823373224       -1.5735592598       -1.4691717439
 H         -1.7288700618        2.6589934529        1.7347125920
 H         -0.7207005191        3.8847846706       -0.8767686080
 H         -1.5952680999        4.7299255355        0.4888073844
 H          0.9954820640        2.3527862187       -0.6277180183
 H          2.6135387129        1.3566993288       -1.8957222335
 H          2.3643859081       -0.2699157542       -2.5302818492
 H          4.4942488495       -0.1902443346       -1.3824750316
 H          3.3953755372       -1.2186345799       -0.4550451393
 H          2.8691875154        0.7532230604        1.0162830901
 H          4.1040702253        1.6803975867        0.1722646668
 H          4.5302621135       -0.8925792190        1.7545068299
 H          4.9041702823        0.7350723853        2.3192895011
 H          6.2583964942       -0.6945457333       -0.0102550792
 H          6.9099482581       -0.4858142353        1.6098314414
 H          6.3315864569        1.7539294389       -0.3840152824
 H          7.9114287853        1.1845549854        0.1427892394
 H          6.8487489641        2.0105777261        1.2836436630
