  19
        -26.74340516
 C         -1.1704242415       -2.1333522053        0.0000946320
 C         -0.2902939673       -0.9234121393       -0.0011656957
 C         -0.8564273000        0.3602005195        0.0003271211
 C         -2.2599335420        0.5151917016        0.0019582465
 N         -3.3996084881        0.6468251895        0.0035107309
 C         -0.0429459861        1.4922567354       -0.0010757451
 C          1.3302456208        1.3545594859       -0.0046447520
 C          1.9132938668        0.0924784897       -0.0072328202
 C          3.4012809878       -0.0677109497        0.0082587050
 C          1.0895771887       -1.0286889810       -0.0050032476
 H         -1.8210254414       -2.1311247164       -0.8742499996
 H         -1.8122139961       -2.1352813390        0.8809843826
 H         -0.5780659982       -3.0449100418       -0.0049604887
 H         -0.4979649854        2.4720076771       -0.0006501090
 H          1.9563627403        2.2346504133       -0.0066024576
 H          3.8955889822        0.8454148586       -0.3135497069
 H          3.7086954152       -0.8852355981       -0.6405671891
 H          3.7384303839       -0.2994853640        1.0191187388
 H          1.5407282548       -2.0113241242       -0.0072141737
