  19
        -26.74348735
 C          0.4764621138       -2.5101435829       -0.0004383380
 C         -0.2883584468       -1.2239623223       -0.0002216339
 C         -1.6739360738       -1.2018344120        0.0000631688
 C         -2.3611118312        0.0002876842        0.0003535170
 C         -1.6736244874        1.2022334112        0.0002385344
 C         -0.2880438058        1.2240036826        0.0000162887
 C          0.4771246008        2.5099814753       -0.0005436781
 C          0.3952863747       -0.0000681686       -0.0000669980
 C          1.8081494259       -0.0002038465        0.0001326625
 N          2.9554939173       -0.0002739273        0.0005721405
 H         -0.1988178933       -3.3621214426       -0.0050729037
 H          1.1161950682       -2.5730916459        0.8797155776
 H          1.1232771861       -2.5688511212       -0.8756640086
 H         -2.2193591725       -2.1341802614        0.0000798037
 H         -3.4410711544        0.0004252647        0.0006796997
 H         -2.2187998405        2.1347222130        0.0003266526
 H         -0.1979192788        3.3621311169        0.0027077112
 H          1.1175334835        2.5718335548       -0.8802650303
 H          1.1232650838        2.5694364523        0.8751004451
