  28
        -37.10664002
 C         -0.8002512730       -1.8357284884        1.4193735652
 C         -1.4889587911       -0.8272759306        0.5494674898
 C         -2.8731017364       -0.7345853764        0.5223516875
 C         -3.5112674740        0.1902430708       -0.2857977761
 C         -2.7657149740        1.0398493789       -1.0834887684
 C         -1.3847377201        0.9601809746       -1.0644969093
 C         -0.7402217988        0.0348199576       -0.2547644201
 C          0.7402079566       -0.0347268002       -0.2547956855
 C          1.3846365752       -0.9602062344       -1.0644603094
 C          2.7656063492       -1.0399998355       -1.0834544033
 C          3.5112355757       -0.1904068941       -0.2858233780
 C          2.8731561424        0.7345533474        0.5222468309
 C          1.4890237056        0.8273862832        0.5493483691
 C          0.8003782868        1.8359053583        1.4192293884
 H         -1.5094715270       -2.3205631075        2.0859526457
 H         -0.0200280824       -1.3637877724        2.0149312878
 H         -0.3229897528       -2.5999310463        0.8061679959
 H         -3.4598080212       -1.3969865788        1.1436307439
 H         -4.5900264650        0.2463614546       -0.2922859414
 H         -3.2572495493        1.7625291078       -1.7181979936
 H         -0.7926891339        1.6174032654       -1.6860665062
 H          0.7925215632       -1.6174155729       -1.6859785983
 H          3.2570713268       -1.7627723718       -1.7181109615
 H          4.5899882242       -0.2466491144       -0.2922802294
 H          3.4599294889        1.3969400723        1.1434778378
 H          1.5098715116        2.3217822096        2.0847568678
 H          0.0211702941        1.3637207273        2.0159339154
 H          0.3218194700        2.5992637254        0.8059938679
