  18
        -31.27442451
 C          2.8335903132       -1.4703790251       -0.0000274841
 C          1.5496724790       -0.7170305455       -0.0000089430
 C          0.2419841833       -1.2492085829       -0.0000087501
 C         -0.6188434044       -0.1804451746        0.0000083090
 C         -2.0827825950       -0.1288817337        0.0000083429
 O         -2.7807985897       -1.1069926815        0.0000419268
 O         -2.6023793203        1.1146417189       -0.0000541048
 O          0.0946963307        0.9814144510        0.0000141650
 C          1.4000674264        0.6493165300        0.0000080380
 C          2.4148893839        1.7336409354        0.0000259157
 H          2.6404279236       -2.5389265180       -0.0001246208
 H          3.4235807863       -1.2198993634        0.8805967444
 H          3.4236428035       -1.2197471767       -0.8805664073
 H         -0.0432441436       -2.2807383958       -0.0000172968
 H         -1.9041351983        1.7851711251       -0.0000771057
 H          1.9210273978        2.7013274081        0.0000375418
 H          3.0511149906        1.6574879807       -0.8808057733
 H          3.0511080002        1.6574636884        0.8808606859
