  21
        -34.73813409
 C          3.2798357655        1.7723373179       -0.2487921903
 C          1.9807986208        1.8307545214        0.0173942163
 C          1.0537754372        0.7056681212        0.0330094398
 C          1.4820028744       -0.6183372891        0.0136865532
 C          0.5534951549       -1.6381161129        0.0298245217
 F          0.9872663389       -2.9200427540        0.0134919550
 C         -0.8023426217       -1.3944937350        0.0765547281
 C         -1.2617196917       -0.0796660544        0.1081910348
 C         -2.6981846418        0.1952432484        0.1971150454
 C         -3.6468373388       -0.5538611461       -0.3477493726
 C         -0.3284749538        0.9675127413        0.0792291201
 O         -0.7210114228        2.2692470611        0.0615820681
 H          3.8899917607        2.6588276966       -0.2375743550
 H          3.7868082145        0.8551628282       -0.4955417068
 H          1.5226522184        2.7860699490        0.2316279436
 H          2.5316694642       -0.8587616741       -0.0031976104
 H         -1.4961192632       -2.2181400390        0.1163675676
 H         -2.9883642235        1.0688132832        0.7732045932
 H         -3.4166144265       -1.4230573477       -0.9396224541
 H         -4.6900919011       -0.3159585941       -0.2321049596
 H         -1.6844796655        2.3205353318        0.0499603884
