25
 energy: -40.158713833064 gnorm: 0.000149820030 xtb: 6.4.1 (23d549d)
C        -3.70198530710000   -1.92227224050000   -0.14891552640000
C        -3.48581665260000   -0.63088390820000    0.07140418080000
C        -2.18853167460000    0.02713976290000    0.10359658820000
C        -2.11643129680000    1.42297010700000    0.17623997630000
N        -0.99544522960000    2.10739770700000    0.15355120220000
C         0.16783420610000    1.46696496040000    0.08303097160000
C         1.34958805730000    2.31156552420000   -0.05442098110000
C         2.40946820470000    2.00602618300000   -0.78906796480000
C         0.22189783990000    0.06048472120000    0.11100452600000
C         1.50102807310000   -0.68006801330000    0.26578021660000
O         2.35424729840000   -0.43268180750000    1.07820355250000
O         1.56875587000000   -1.71489743730000   -0.58822485210000
C         2.73277839140000   -2.52275296110000   -0.49045861350000
C        -0.96900648650000   -0.65055383720000    0.09989383470000
H        -4.69871127850000   -2.32799558670000   -0.16313411860000
H        -2.90470632100000   -2.62249524970000   -0.33109691710000
H        -4.32861519230000    0.03054087370000    0.22990883980000
H        -3.01999105920000    2.01664545580000    0.24586128210000
H         1.27216505750000    3.27177474500000    0.43549882950000
H         2.47889192050000    1.08171120500000   -1.33912304710000
H         3.24565026680000    2.67743564460000   -0.87942313410000
H         2.63978129950000   -3.28521716380000   -1.25945336440000
H         2.79534872670000   -2.97904914600000    0.49962491350000
H         3.62826941450000   -1.91927190660000   -0.65312321060000
H        -0.93723603480000   -1.72930210580000    0.11805522220000
