  24
        -42.13036704
 C          3.8011788816       -1.5593715075       -0.0839038553
 C          2.4868993298       -1.6556109940        0.0743227846
 C          1.5178800205       -0.5644619138        0.0429890088
 C          0.1635195037       -0.8822055902        0.0357835197
 C         -0.8059207824        0.1191937018       -0.0014186110
 C         -2.2361860478       -0.1506515779       -0.0155905976
 C         -2.8562050017       -1.3206302090       -0.0008563713
 F         -2.3199678723       -2.5350204463        0.0314189676
 F         -4.1835549570       -1.4402009045       -0.0172466803
 C         -0.3989736273        1.4491150792       -0.0243464215
 C          0.9539968861        1.7822662748       -0.0096235256
 O          1.2289937503        3.1156662376       -0.0285301976
 C          2.5742145760        3.5275670010       -0.0161172686
 C          1.9084298071        0.7759660491        0.0238037052
 H          4.4325213332       -2.4304394693       -0.0487463574
 H          4.3049097197       -0.6243752537       -0.2607704141
 H          2.0503742320       -2.6340381333        0.2311777007
 H         -0.1260810339       -1.9197876949        0.0542021025
 H         -2.8865013841        0.7116901371       -0.0423787049
 H         -1.1203921482        2.2503276713       -0.0504579197
 H          2.5484155859        4.6158653868       -0.0370848329
 H          3.1147778402        3.1626902826       -0.8955246079
 H          3.0882525384        3.1964447540        0.8920718544
 H          2.9578128074        1.0168016083        0.0448327253
