  23
        -42.28951522
 C         -4.1107249980        1.0859491983       -0.0873545658
 C         -3.5754558364       -0.1288274276       -0.0491438615
 C         -2.1565823739       -0.4533788971        0.0038894386
 C         -1.7626929756       -1.7913949350        0.0807391368
 C         -0.4322466873       -2.1438692063        0.1378356875
 C          0.5781472299       -1.1814831638        0.1194852618
 C          1.9847052935       -1.5687822452        0.1903602658
 C          2.4741413221       -2.6914209562       -0.3197333451
 C          0.1807849944        0.1620128218        0.0421133701
 C          1.2194584455        1.2482646369       -0.0014307304
 F          1.9125054864        1.3542118848        1.1518229276
 F          2.1362894422        1.0590231133       -0.9688321006
 F          0.6994516195        2.4649447687       -0.2231617999
 C         -1.1554783321        0.5167634690       -0.0168318617
 H         -5.1775852081        1.2228493879       -0.1245935835
 H         -3.5217598499        1.9866567859       -0.0821307568
 H         -4.2303498669       -0.9914229721       -0.0536397572
 H         -2.5184901218       -2.5635068800        0.1021222506
 H         -0.1577009589       -3.1840708191        0.2197081692
 H          2.6520431103       -0.8767736317        0.6843206549
 H          1.8605062446       -3.3955337957       -0.8563512937
 H          3.5194863564       -2.9330028575       -0.2398795167
 H         -1.4185545289        1.5600829015       -0.0831910096
  23
        -42.28947532
 C         -4.6281668990       -0.2693935453       -0.0955997595
 C         -3.4900265868        0.4149620914       -0.1047960737
 C         -2.1435233903       -0.1387502046       -0.0651757464
 C         -1.8741337840       -1.5078748791       -0.0092599556
 C         -0.5793105667       -1.9758065837        0.0240879007
 C          0.5160653106       -1.1102017680        0.0038956316
 C          1.8817319440       -1.6274069861        0.0309804982
 C          2.2448669315       -2.7380337750        0.6592652633
 C          0.2441625349        0.2642480795       -0.0548733471
 C          1.3753433586        1.2541752373       -0.0623518202
 F          2.1163471985        1.1911403392       -1.1886402988
 F          0.9609906316        2.5268638580        0.0270024650
 F          2.2356163680        1.0752972787        0.9576756653
 C         -1.0569873767        0.7356291442       -0.0857533380
 H         -5.5796568468        0.2324623651       -0.1269731444
 H         -4.6651909922       -1.3444322499       -0.0570694573
 H         -3.5284700459        1.4963317727       -0.1450871050
 H         -2.6882265375       -2.2153078452        0.0032994277
 H         -0.3977879697       -3.0392487219        0.0452645035
 H          2.6287710942       -1.0458735482       -0.4905674586
 H          1.5486172375       -3.3325136332        1.2268167442
 H          3.2654095396       -3.0784396592        0.6486226425
 H         -1.2345985149        1.8002455487       -0.1247653127
  23
        -42.28703545
 C         -4.0445638570        1.1755013599       -0.4431999202
 C         -3.5947509753       -0.0322672174       -0.1236829462
 C         -2.2009569622       -0.4309399434        0.0218042454
 C         -1.8953279194       -1.7671383993        0.2915000433
 C         -0.5897916866       -2.1839557920        0.4254251026
 C          0.4803123299       -1.2987802519        0.2841930023
 C          1.8389302690       -1.8408476215        0.3860088589
 C          2.8140342420       -1.6394589412       -0.4864813908
 C          0.1738198232        0.0476846336        0.0536550274
 C          1.2469349094        1.1002570515       -0.0200667228
 F          2.2499007383        0.9130095004        0.8515202491
 F          1.8144522837        1.1896864365       -1.2412206527
 F          0.7701782665        2.3312201553        0.2388493065
 C         -1.1412847328        0.4672500577       -0.0796133788
 H         -5.0992495098        1.3716334031       -0.5299464047
 H         -3.3942318699        2.0118031053       -0.6328548679
 H         -4.3070204821       -0.8301504109        0.0468171508
 H         -2.6973245856       -2.4837554097        0.3955211390
 H         -0.3752455332       -3.2232937472        0.6265182656
 H          1.9914085114       -2.5129708720        1.2215256838
 H          2.6931277678       -1.0193309970       -1.3578619824
 H          3.7771217814       -2.1038471908       -0.3634767769
 H         -1.3400350550        1.5128597622       -0.2515428631
  23
        -42.28703310
 C         -4.6644876827       -0.0930204933       -0.0355861480
 C         -3.4880233133        0.5168151643       -0.1200613716
 C         -2.1775683566       -0.1187286504       -0.0836359611
 C         -1.9935677313       -1.5027160865       -0.0494976688
 C         -0.7285605931       -2.0440101184       -0.0069754095
 C          0.4169307167       -1.2452264308        0.0203379787
 C          1.7177660753       -1.9133514435        0.1248481765
 C          2.6682090813       -1.6134846510        0.9963142906
 C          0.2352282800        0.1401392921       -0.0537532368
 C          1.3998747680        1.0899255382       -0.1267757350
 F          2.4220227496        0.6370657521       -0.8690679434
 F          1.0574345613        2.2723623081       -0.6687703153
 F          1.9122730770        1.3900105724        1.0851265178
 C         -1.0396742076        0.6852683819       -0.0999688361
 H         -5.5844040418        0.4644749222       -0.0690415736
 H         -4.7648520322       -1.1592863918        0.0729785864
 H         -3.4608578628        1.5946523483       -0.2192455391
 H         -2.8479771468       -2.1607729879       -0.0618511908
 H         -0.6062265948       -3.1168436522        0.0247538459
 H          1.8398036894       -2.7617721612       -0.5371888769
 H          2.5710408007       -0.8108869573        1.7067914193
 H          3.5847585019       -2.1761212779        1.0373618921
 H         -1.1525398438        1.7579693288       -0.1571301634
