  21
        -34.44475536
 C          3.4834064246       -1.1282134260        0.0006207803
 O          2.0659584497       -1.0732459905        0.0037741331
 C          1.4923183463        0.1429087483       -0.0017309095
 O          2.1176874048        1.1786470385       -0.0041361806
 C          0.0365275179        0.0386748151       -0.0001684235
 C         -0.7470752158       -1.1570481442       -0.0008358690
 C         -2.0451528294       -0.7622279857       -0.0003516529
 C         -3.3184454382       -1.5283271991       -0.0010536621
 O         -2.1149289735        0.5958912188        0.0007037087
 C         -0.8629962467        1.0806762508        0.0006578061
 C         -0.6587003556        2.5485294659        0.0022561445
 H          3.7935529884       -1.8103832394        0.7917482120
 H          3.8945718720       -0.1315399463        0.1737647777
 H          3.8213900221       -1.5040956920       -0.9666363806
 H         -0.3685705100       -2.1572505958       -0.0017275645
 H         -3.1039408912       -2.5923476150        0.0013210457
 H         -3.9085901655       -1.2836631162       -0.8833133442
 H         -3.9115681177       -1.2801590670        0.8781888599
 H         -1.1262217645        2.9958031642       -0.8740948110
 H          0.4066574627        2.7559962271       -0.0051974782
 H         -1.1125145572        2.9920525268        0.8877422221
