  23
        -36.71964768
 C         -4.3945258208       -0.0298654848       -0.1333469825
 C         -3.2517907448        0.6462878842       -0.1196109630
 C         -1.9105603272        0.0846254905       -0.0292403034
 C         -1.6535555634       -1.2865685139        0.0471592114
 C         -0.3638001526       -1.7604018733        0.1536195925
 C          0.7342127496       -0.8996886813        0.1690154947
 C          2.0834077703       -1.4398864049        0.3600760947
 C          2.5156557222       -2.5778136506       -0.1685105088
 C          0.4870090287        0.4788955426        0.0655282092
 C          1.5638883952        1.5108544176        0.0035921177
 O          1.4395706981        2.6118053256        0.4646823275
 O          2.6898727016        1.1659231503       -0.6517247044
 C         -0.8172645671        0.9480292469       -0.0139604129
 H         -5.3413128938        0.4773488307       -0.2017102210
 H         -4.4408821383       -1.1039458527       -0.0767984152
 H         -3.2795712438        1.7271857213       -0.1768741585
 H         -2.4712291012       -1.9900743736        0.0385717768
 H         -0.1917790567       -2.8217135635        0.2548669872
 H          2.7408431123       -0.8587641157        0.9962320553
 H          1.8995870847       -3.1746709074       -0.8208029582
 H          3.5085560990       -2.9470116440        0.0214207616
 H          2.6628942443        0.2542482015       -0.9767934876
 H         -0.9663144146        2.0164990040       -0.0730645443
