  34
        -52.77450326
 C         -4.0844626620        1.6454911951        1.6730654497
 C         -3.4923258519        1.8786616972        0.5078256875
 C         -2.4190943658        1.0968609781       -0.0898344965
 C         -1.8894078435       -0.0606605687        0.4744205132
 C         -0.8755066796       -0.8090733119       -0.1115247208
 C         -0.4966144892       -2.0694481553        0.5463505354
 C         -0.1873079816       -2.1633230021        1.8293176368
 C         -0.3159345503       -0.3556146312       -1.3158060422
 O          0.7101770128       -0.9230695756       -2.0114521737
 C          1.7288935599       -1.6523020445       -1.3523976212
 C          2.3143429060       -0.9704693870       -0.1416910553
 C          2.3414233474        0.4131752314       -0.0407020219
 C          2.8809919025        1.0216469150        1.0792040537
 C          3.4125380420        0.2542033591        2.1002330260
 C          3.4054278177       -1.1268260366        1.9963822615
 C          2.8548464921       -1.7355226650        0.8840658189
 C         -0.8391608058        0.7923827621       -1.9107261354
 C         -1.8684327599        1.4820758072       -1.3143594958
 F         -2.3386123391        2.5831022056       -1.9419183203
 H         -4.8739095166        2.2826834072        2.0319742239
 H         -3.8143987368        0.8229714784        2.3128279069
 H         -3.8113733697        2.7266708670       -0.0841416274
 H         -2.3030240913       -0.4262091115        1.4008770693
 H         -0.5369381569       -2.9568636290       -0.0729788249
 H         -0.1317268474       -1.2914105910        2.4596106916
 H          0.0441815143       -3.1069239507        2.2927073865
 H          2.5051582070       -1.7563669584       -2.1215188675
 H          1.3897880584       -2.6598400376       -1.0859209350
 H          1.9386962578        1.0181882121       -0.8391487954
 H          2.8883428160        2.0991423073        1.1504595380
 H          3.8338767587        0.7296020698        2.9734948593
 H          3.8242469250       -1.7315298749        2.7871814696
 H          2.8429448755       -2.8133966779        0.8084056915
 H         -0.4247750497        1.1347170280       -2.8455232642
