17
 energy: -32.833524302593 gnorm: 0.000102211107 xtb: 6.4.1 (23d549d)
C        -2.22224939450000   -2.25116410680000   -0.50621783380000
C        -1.26585541680000   -1.54883250300000    0.08838672170000
C        -1.16724240950000   -0.10128590400000    0.06192856910000
C        -2.27763321710000    0.76768128620000   -0.12107920480000
C        -1.96274371230000    2.07845635200000    0.00194948770000
S        -0.29731582920000    2.31934085650000    0.34562890680000
C        -0.00764484680000    0.60394549480000    0.31274118660000
C         1.34455204770000    0.14769599550000    0.51536377030000
C         1.92252397420000   -0.90012388840000   -0.05729392710000
F         1.39602577820000   -1.72870678590000   -0.94982603870000
F         3.18099515350000   -1.26088717360000    0.18603417960000
H        -2.25476577760000   -3.32414681610000   -0.43608405410000
H        -2.99124789700000   -1.78704033700000   -1.09996474690000
H        -0.49607162960000   -2.05849019470000    0.65226489300000
H        -3.27465115790000    0.41493480760000   -0.31110620660000
H        -2.60871794710000    2.92953160780000   -0.08443030980000
H         1.97507831820000    0.74573996140000    1.15764337610000
