  20
        -43.32683337
 C          3.5406341531        1.1779347816        0.2722004721
 C          2.3041635475        1.4832868987       -0.1014583031
 C          1.1394306139        0.6023115064       -0.0574638788
 C          1.2081172650       -0.7921871543       -0.0169937168
 F          2.3885722093       -1.4239451918       -0.0234124479
 C          0.0579138319       -1.5709759700        0.0006838857
 F          0.1551915283       -2.9063616999        0.0293478780
 C         -1.1874819094       -0.9625116874       -0.0154255232
 F         -2.2812532815       -1.7367104669        0.0063716306
 C         -1.3294712308        0.4292776256       -0.0475292019
 C         -2.6755145653        0.9961663822       -0.0690269564
 C         -3.0231159869        2.2361776020        0.2522797150
 C         -0.1429506227        1.1628917099       -0.0783108585
 F         -0.2162029955        2.5034429037       -0.1446489098
 H          4.3266132164        1.9099476894        0.2031635094
 H          3.8211351979        0.2159151647        0.6615774934
 H          2.0863971482        2.4824041889       -0.4543432446
 H         -3.4413542078        0.2867985366       -0.3535581279
 H         -2.3207577351        2.9835501196        0.5742955050
 H         -4.0546090619        2.5404402553        0.2075267042
