  23
        -33.93763215
 C         -3.3613299350        2.0679234237        0.0450594443
 C         -2.8823676638        0.8310551789        0.0685939424
 C         -1.4766212180        0.4400857469        0.0102701938
 C         -0.4204543628        1.3506645936       -0.0545617794
 C          0.8800841986        0.8687440104       -0.1072516985
 C          2.0488771251        1.8204367019       -0.1845342945
 O          3.2665485614        1.2711109405        0.2528440256
 C          1.0814449074       -0.5029824731       -0.0944301442
 C         -0.0272712618       -1.3496344051       -0.0221083832
 C          0.0686143969       -2.8061647474        0.0035443598
 C          1.1822857164       -3.5247421640       -0.0556175661
 N         -1.2667459327       -0.8731500182        0.0308299674
 H         -4.4199838684        2.2577944217        0.0915907690
 H         -2.7311972450        2.9388056888       -0.0221852343
 H         -3.5544236657       -0.0137313403        0.1338192964
 H         -0.6033329267        2.4135188239       -0.0625594449
 H          1.8110877720        2.7384014830        0.3746356054
 H          2.2152873151        2.0991375249       -1.2309872057
 H          3.1668688848        0.9839636743        1.1676443445
 H          2.0841066360       -0.8961582117       -0.1463678957
 H         -0.8939719201       -3.2937673713        0.0766237754
 H          2.1610820610       -3.0823134029       -0.1330800848
 H          1.1543415123       -4.6006980776       -0.0313011100
