  42
        -59.77958458
 C          2.6320293357        1.3233516578       -2.7290091365
 C          2.0228449344        1.9986722369       -1.7626535966
 C          0.7367092795        1.6721762055       -1.1516915713
 C          0.3280306045        2.3832255416       -0.0208394837
 C         -0.8875984401        2.1180336686        0.6032015784
 C         -1.2681550181        2.9160248967        1.7642837849
 C         -2.4628928283        2.9565600522        2.3404465045
 C         -1.6947204670        1.0929126642        0.1083228159
 C         -1.2935818837        0.3575786235       -0.9995793513
 O         -1.9873981811       -0.6739623844       -1.5532241892
 C         -3.0446582191       -1.2821323798       -0.8405011140
 C         -2.6200339490       -2.0203603005        0.4339045725
 C         -1.7058248214       -3.2236731248        0.1899625460
 C         -0.3035371217       -2.8817095748       -0.3195921336
 C          0.5288017655       -2.0880975156        0.6863908556
 C          1.9237771325       -1.7748858846        0.1309325223
 C          2.7249278175       -1.0020046780        1.1597090441
 O          3.5869239323       -1.4847728315        1.8359875822
 O          2.3835770987        0.2889389681        1.3013471251
 C         -0.0905531062        0.6639481413       -1.6350320291
 H          3.5870391598        1.6373001965       -3.1125041762
 H          2.2143009604        0.4384231114       -3.1785463481
 H          2.5057944408        2.8743227330       -1.3481003697
 H          0.9624539261        3.1659077104        0.3689874013
 H         -0.4744087993        3.5381916625        2.1580802048
 H         -3.3033931714        2.3824378906        1.9890146638
 H         -2.6502127880        3.5852262951        3.1936206492
 H         -2.6315673468        0.8812182100        0.5956399495
 H         -3.4660196287       -1.9949475289       -1.5548937114
 H         -3.8194236772       -0.5416790046       -0.5998625753
 H         -3.5356371045       -2.3734345125        0.9137097292
 H         -2.1364327460       -1.3266634580        1.1218805551
 H         -2.1859110169       -3.8854856262       -0.5346658610
 H         -1.6125725742       -3.7741218417        1.1294172448
 H         -0.3819837075       -2.3229875908       -1.2517592367
 H          0.2156266914       -3.8175583578       -0.5391493062
 H          0.6334737292       -2.6636588621        1.6088896079
 H          0.0253041066       -1.1503499878        0.9326587204
 H          1.8341594446       -1.1889283866       -0.7870469962
 H          2.4515689152       -2.7034143520       -0.0879993082
 H          1.6914510556        0.5744759276        0.6823813063
 H          0.1698347867        0.0982781111       -2.5147420603
