  24
        -40.17870844
 C         -5.6978258781        0.5862352844        0.0076621514
 C         -4.8101359387       -0.4022102779       -0.0060061867
 C         -3.3608326998       -0.2718546671       -0.0029241372
 C         -2.7008373271        0.9594352444        0.0065676034
 C         -1.3259053115        1.0235314837        0.0083885551
 C         -0.5385690608       -0.1345841231        0.0018899297
 C          0.9014480906        0.0065230221        0.0044350885
 C          1.7992023661       -0.9940182589        0.0168652148
 C          3.2335807860       -0.8514136451        0.0192382869
 C          3.9481391659        0.2688880962       -0.0012829679
 F          3.5010670990        1.5196660748       -0.0292071660
 F          5.2806160703        0.2854915465        0.0029453138
 C         -1.2006279983       -1.3667639608       -0.0080259255
 C         -2.5759624545       -1.4290167811       -0.0106240100
 H         -6.7556680392        0.3869832449        0.0040354758
 H         -5.4157205018        1.6248798639        0.0232605370
 H         -5.1680679819       -1.4249096037       -0.0206819056
 H         -3.2706571066        1.8755965979        0.0118248033
 H         -0.8379242073        1.9880566915        0.0154252258
 H          1.2504047024        1.0295732508       -0.0028895521
 H          1.4630455233       -2.0203928875        0.0277585780
 H          3.8174732128       -1.7599622002        0.0391989543
 H         -0.6347852007       -2.2855779148       -0.0152777115
 H         -3.0634420140       -2.3941714623       -0.0188267197
