  31
        -42.72994926
 C          1.2757195448       -3.2132131959        0.9352766588
 C          1.0864114554       -2.5528389258       -0.4304121150
 N          0.6632518087       -1.1848806967       -0.3062053595
 C          1.4925893038       -0.0981097570       -0.1672331502
 C          0.7111931780        1.0706734461        0.0030308747
 C          1.3293248496        2.3051628614        0.1514487701
 C          2.7082963035        2.3623773959        0.1316949077
 C          3.4703023221        1.2075865176       -0.0324956531
 C          2.8792905974       -0.0319613501       -0.1823916177
 C         -0.6392629072       -0.7556298092       -0.1975229306
 C         -0.6593143734        0.6465064181       -0.0165778488
 C         -1.8688690191        1.3183009936        0.1060038770
 C         -3.0509641040        0.6024524250        0.0520367389
 C         -4.3791231198        1.2888758970        0.1802821449
 C         -3.0106053762       -0.7849506437       -0.1237518398
 C         -1.8236624055       -1.4777430831       -0.2486400032
 H          1.5935946742       -4.2454569833        0.8139820346
 H          0.3420788121       -3.1958952559        1.4928148729
 H          2.0288723481       -2.6784746300        1.5094192592
 H          0.3340679237       -3.0970639648       -1.0081966999
 H          2.0252252049       -2.5763700207       -0.9909696317
 H          0.7387992236        3.1998946409        0.2806407793
 H          3.2088255996        3.3125113832        0.2464861763
 H          4.5480083640        1.2832667103       -0.0404661868
 H          3.4861751212       -0.9169832442       -0.3042497766
 H         -1.8815932178        2.3897716668        0.2431454683
 H         -4.2508719455        2.3586655826        0.3242677841
 H         -4.9352194857        0.8889400302        1.0277094853
 H         -4.9786122164        1.1292751060       -0.7156340731
 H         -3.9439017552       -1.3290027384       -0.1602942687
 H         -1.8283156925       -2.5498311413       -0.3789661581
