30
 energy: -41.322139466796 gnorm: 0.000033308459 xtb: 6.4.1 (23d549d)
C        -0.07236535940000   -1.77845265270000   -2.04479390510000
C        -1.14154526480000   -0.99525363720000   -2.00810314560000
C        -1.60035270760000   -0.21135839510000   -0.86117967610000
C        -2.97559514240000   -0.04937042830000   -0.68862321800000
C        -3.49026555480000    0.62431964190000    0.40094726930000
C        -2.62982891220000    1.16690359100000    1.34147147810000
C        -1.26453495960000    1.03691690150000    1.17443037210000
C        -0.73376728660000    0.35353467140000    0.08486602050000
C         0.73377471240000    0.35387610530000   -0.08472266760000
C         1.26458858960000    1.03906722960000   -1.17310917930000
C         2.62988679980000    1.17010819050000   -1.33938794400000
C         3.49024925360000    0.62679504940000   -0.39922147680000
C         2.97552596060000   -0.04894516260000    0.68905166930000
C         1.60031197360000   -0.21211214730000    0.86074875480000
C         1.14162998750000   -0.99831444550000    2.00610614650000
C         0.07227197700000   -1.78134658040000    2.04168300780000
H         0.17325074310000   -2.34806137160000   -2.92528072970000
H         0.59120354760000   -1.89244204930000   -1.20510716750000
H        -1.79634557980000   -0.95305702670000   -2.87110125310000
H        -3.64681228980000   -0.47743683580000   -1.42031766760000
H        -4.55907522170000    0.72936309220000    0.51616000510000
H        -3.02173759160000    1.69932772800000    2.19541308950000
H        -0.58694895070000    1.47638064810000    1.89251101570000
H         0.58705450840000    1.47924685480000   -1.89080543010000
H         3.02184283460000    1.70407781500000   -2.19234626300000
H         4.55903801940000    0.73288492640000   -0.51367297390000
H         3.64670599210000   -0.47767378140000    1.42039496100000
H         1.79672445270000   -0.95808135830000    2.86896399760000
H        -0.59174008230000   -1.89356393480000    1.20212154280000
H        -0.17297050750000   -2.35273891510000    2.92111839610000
