  22
        -32.85959691
 C          2.8671975182       -1.7962036955       -0.0015152485
 S          2.5318334729       -0.0136651992        0.0024409115
 C          0.7672732912        0.0885067811        0.0010201673
 C         -0.0531734735       -1.0284994806        0.0006082635
 C         -1.4234331819       -0.8543404785       -0.0005840341
 F         -2.2010641180       -1.9643669597       -0.0021146101
 C         -2.0257469053        0.3947115499       -0.0041274431
 C         -3.5158773267        0.5326846944        0.0053533558
 C         -1.1753809421        1.4937923335       -0.0038873256
 C          0.2034704267        1.3709978977       -0.0009307881
 C          1.0889241705        2.5758885650       -0.0012758494
 H          3.9492174919       -1.8866547849       -0.0021533573
 H          2.4600667956       -2.2510324840       -0.8999172511
 H          2.4608409863       -2.2550911418        0.8951641294
 H          0.3342460277       -2.0334949989        0.0011564709
 H         -3.9667875325       -0.1648275924       -0.6981528917
 H         -3.8102826658        1.5455848186       -0.2554353219
 H         -3.9073579641        0.3004066515        0.9961133203
 H         -1.6095235904        2.4832098742       -0.0070096528
 H          0.5029528395        3.4906198213       -0.0024277339
 H          1.7359845111        2.5661893535       -0.8780082074
 H          1.7345667889        2.5675516520        0.8765104985
  22
        -32.85593026
 C          2.9926029570       -0.6318053093       -1.1212505802
 S          2.4480272389       -0.4499054377        0.6075192057
 C          0.7279216416       -0.0671566771        0.2934108203
 C         -0.1884392671       -1.1032329107        0.3866976273
 C         -1.5188242200       -0.8466054936        0.1341659445
 F         -2.4064488182       -1.8635246089        0.2224618603
 C         -1.9780198375        0.4205364122       -0.2105690874
 C         -3.4302553326        0.6532779172       -0.4829925543
 C         -1.0351424679        1.4335112724       -0.2832948047
 C          0.3165643463        1.2222908754       -0.0322861296
 C          1.2801102629        2.3637684015       -0.1253218435
 H          4.0458494442       -0.8888972952       -1.0873916372
 H          2.8510345894        0.3047934472       -1.6511762977
 H          2.4257690416       -1.4288766036       -1.5931481408
 H          0.1318620633       -2.0974757993        0.6548649146
 H         -4.0296012623        0.3189279510        0.3626290543
 H         -3.7451370746        0.0781582799       -1.3533649615
 H         -3.6267778726        1.7059913080       -0.6653620020
 H         -1.3630758493        2.4305932933       -0.5408197807
 H          0.8266956774        3.2750585254        0.2573988401
 H          1.5582329062        2.5403238818       -1.1652283622
 H          2.1830858872        2.1501816383        0.4413443749
  22
        -32.85575701
 C          2.9942556652       -0.6296929642       -1.1203055616
 S          2.4472471405       -0.4492796215        0.6078145480
 C          0.7267661961       -0.0691813154        0.2925137737
 C         -0.1880948266       -1.1043829587        0.3846179084
 C         -1.5215974665       -0.8513989928        0.1331210357
 F         -2.3976204015       -1.8785546089        0.2235757999
 C         -1.9816798485        0.4138120835       -0.2090382117
 C         -3.4289730848        0.6808773695       -0.4841731810
 C         -1.0370471386        1.4289062979       -0.2813571305
 C          0.3134074423        1.2213610034       -0.0325462415
 C          1.2767958939        2.3629774333       -0.1258518992
 H          4.0477293643       -0.8857370621       -1.0850363022
 H          2.8526046863        0.3070007787       -1.6500513467
 H          2.4288590918       -1.4271264527       -1.5933361904
 H          0.1324584890       -2.0989390120        0.6515181121
 H         -4.0220560772       -0.2181292021       -0.3417113509
 H         -3.5590862327        1.0273947147       -1.5086918688
 H         -3.8013891429        1.4572834820        0.1823424540
 H         -1.3706395414        2.4244469046       -0.5379626417
 H          0.8186659323        3.2775992236        0.2428879425
 H          1.5665797456        2.5295321799       -1.1642536380
 H          2.1737823279        2.1552556643        0.4524647115
