  24
        -42.12839159
 C         -1.3326941449       -3.8213974226       -0.3370875262
 C         -1.3079953743       -2.5802535991        0.1309288918
 C         -0.1634780166       -1.6759499044        0.0275581408
 C          1.1356384590       -2.1804669299        0.0977977580
 C          2.2346732984       -1.3547721867        0.0572125886
 C          2.0695108194        0.0277645945       -0.0588617761
 O          3.2099795334        0.7646240609       -0.0873257055
 C          3.1078298959        2.1665447626       -0.1721418390
 C          0.7859226443        0.5485795557       -0.1398404614
 C         -0.3301051951       -0.2864953648       -0.0947265074
 C         -1.6715738528        0.2725681887       -0.2342731988
 C         -2.0619633621        1.4945448894        0.0909330482
 F         -1.3344726891        2.4634835773        0.6391356678
 F         -3.3071414456        1.9379260007       -0.0806060856
 H         -2.1969941013       -4.4520037392       -0.2183151108
 H         -0.5001573494       -4.2494581164       -0.8695932580
 H         -2.1794586279       -2.1884669521        0.6391885887
 H          1.2774517484       -3.2440571223        0.2125161858
 H          3.2358143253       -1.7502947955        0.1195488912
 H          4.1310121097        2.5375386533       -0.1430222117
 H          2.5475734159        2.5806540483        0.6717717510
 H          2.6374574678        2.4789694609       -1.1099399877
 H          0.6383930038        1.6083376641       -0.2602040083
 H         -2.4384082379       -0.3655511391       -0.6463177745
