  41
        -49.70488017
 C         -5.0702184182       -0.3595116352        1.9758498435
 C         -4.4056976037        0.5688972242        1.2932470827
 C         -3.2688613515        0.3190925190        0.4516661771
 C         -2.5571341967        1.2406748764       -0.2711361508
 C         -1.4906455420        0.6985510134       -1.0138286868
 C         -0.5804260000        1.5625874710       -1.8299191792
 C          0.4854348538        2.2379582415       -0.9551566788
 C          1.4588438540        1.2348049452       -0.3431378215
 C          2.5157303758        1.9229460718        0.5175275601
 C          3.4178109661        0.9394504637        1.2634984854
 C          4.2986493703        0.1008777156        0.3399135156
 C          5.2789194829       -0.7684414233        1.1241289623
 C          6.1471296289       -1.6167136374        0.2029161056
 C         -1.3802788462       -0.6662029292       -0.8517732966
 C         -0.4223595302       -1.5595494448       -1.4423710831
 C         -0.3349661549       -2.8623064503       -1.1862248193
 S         -2.6126065672       -1.2725682606        0.2218701541
 H         -5.9170300536       -0.1126916304        2.5911605893
 H         -4.7821521577       -1.3970922222        1.9361442003
 H         -4.7083001759        1.6076425825        1.3436239296
 H         -2.7989497962        2.2898847815       -0.2730638211
 H         -1.1790811390        2.3374173616       -2.3152688504
 H         -0.0914197831        0.9786364223       -2.6106122148
 H         -0.0095452408        2.7959006562       -0.1567993123
 H          1.0410235967        2.9527775546       -1.5669362024
 H          1.9462155464        0.6787209682       -1.1456222327
 H          0.9057839058        0.5205372076        0.2706823218
 H          2.0117144347        2.5577165065        1.2510052458
 H          3.1302267730        2.5716510233       -0.1117828133
 H          2.7991936651        0.2754053324        1.8719220873
 H          4.0612988028        1.5042406966        1.9431689410
 H          4.8581037046        0.7635792713       -0.3250945778
 H          3.6736584824       -0.5449823249       -0.2792072437
 H          4.7197712056       -1.4212445540        1.7984348394
 H          5.9181996102       -0.1294325969        1.7379680312
 H          5.5292690675       -2.2777978045       -0.4011779741
 H          6.8384597882       -2.2261978720        0.7803498877
 H          6.7252183422       -0.9831487446       -0.4665866960
 H          0.2666059438       -1.1028691681       -2.1402178363
 H         -1.0017005648       -3.3453862301       -0.4912398950
 H          0.4041292100       -3.4830341465       -1.6609164176
