  24
        -37.21566904
 C          5.1796162199        0.8795304207       -0.0361041662
 C          4.5694376310       -0.3028196581       -0.0128997760
 C          3.1476044916       -0.4978540029        0.0015178367
 C          2.4755708762       -1.6959308671        0.0162578664
 C          1.0833256391       -1.5604659233        0.0233341483
 C          0.6661659008       -0.2505591027        0.0152312519
 C         -0.6661658966        0.2505555072        0.0152188275
 C         -1.0833244592        1.5604616104        0.0235543426
 C         -2.4755688345        1.6959294076        0.0162899938
 C         -3.1476012789        0.4978557735        0.0012680840
 C         -4.5694333557        0.3028298764       -0.0132860587
 C         -5.1796278326       -0.8795341061       -0.0353749204
 S         -2.0272523128       -0.8344145274       -0.0016962259
 S          2.0272530125        0.8344148860       -0.0013292945
 H          6.2516465666        0.9631270911       -0.0472878106
 H          4.6186022632        1.7995562989       -0.0448862452
 H          5.1483750462       -1.2179721562       -0.0050951808
 H          2.9809869115       -2.6457138211        0.0209326625
 H          0.3941339567       -2.3865031954        0.0342217417
 H         -0.3941342653        2.3864960187        0.0347258270
 H         -2.9809843247        2.6457120095        0.0210825931
 H         -5.1483572071        1.2179982600       -0.0065127344
 H         -4.6186237721       -1.7995750107       -0.0430973157
 H         -6.2516567211       -0.9631242169       -0.0466870283
