38
 energy: -62.838740428702 gnorm: 0.000041473918 xtb: 6.4.1 (23d549d)
F        -5.76935996260000    0.79971023610000    0.97338233210000
C        -4.82371955120000    0.03055405120000    0.43396150330000
F        -5.40304139040000   -1.01453162560000   -0.14471114300000
C        -3.53315319030000    0.32012262960000    0.50031440270000
C        -2.40747645640000   -0.42511643490000   -0.04274177550000
C        -1.13169533560000    0.09432554010000    0.16546482760000
C         0.00010227980000   -0.55152315120000   -0.32469345790000
N         1.26893049540000   -0.00992927800000   -0.11488176760000
C         2.36867383210000   -0.85347735740000    0.09207065400000
C         3.61400254160000   -0.53328738260000   -0.44701067690000
C         4.69769677550000   -1.36323422020000   -0.23495388540000
C         4.55779448270000   -2.52464447220000    0.50694790530000
C         3.32180727270000   -2.84862377840000    1.04192539310000
C         2.23409989010000   -2.02065764110000    0.84291367710000
C         1.45054338210000    1.37941962460000   -0.10932144190000
C         0.74341753030000    2.18995609990000   -0.99685215050000
C         0.92580039690000    3.55918704010000   -0.98453402320000
C         1.81806984790000    4.14065925410000   -0.09865373070000
C         2.52723627620000    3.33918458820000    0.78090620910000
C         2.34532557630000    1.96981415280000    0.78234503870000
C        -0.15697201560000   -1.74716434660000   -1.02857940930000
C        -1.41992228640000   -2.27052765720000   -1.22586914390000
C        -2.54419584120000   -1.62372919310000   -0.74560102040000
H        -3.29587641760000    1.23331412960000    1.02722897460000
H        -1.01370066560000    1.01422800190000    0.71950030420000
H         3.72310195850000    0.36747499470000   -1.03314720260000
H         5.65654761910000   -1.10483273740000   -0.65963035890000
H         5.40605887120000   -3.17242822910000    0.66757428500000
H         3.20470145380000   -3.74890931960000    1.62699621940000
H         1.27385701560000   -2.27004170110000    1.27037989870000
H         0.05553204300000    1.73804877200000   -1.69660040660000
H         0.37346142550000    4.17540880950000   -1.67863885150000
H         1.96034890370000    5.21055366460000   -0.09454286660000
H         3.22206242290000    3.78402920590000    1.47790719500000
H         2.89295456440000    1.34749631370000    1.47488958350000
H         0.71210747990000   -2.25412210780000   -1.41998470750000
H        -1.53095979430000   -3.19452705330000   -1.77334151630000
H        -3.51673779110000   -2.05156104000000   -0.91937280470000
