  19
        -30.17021350
 C         -2.5840949698        1.4295910501        0.0016955383
 C         -1.2569747369        0.7338281989       -0.0056908551
 C         -0.0645678633        1.4332682095       -0.0037477594
 C          1.1649756945        0.7782865376        0.0009083834
 C          2.4771232162        1.4965912924        0.0070456529
 C          1.0893349369       -0.6064761907       -0.0008557173
 F          2.2285921053       -1.3263543514       -0.0005082522
 N         -0.0145611252       -1.3135781797       -0.0133212181
 C         -1.1796039778       -0.6721082562       -0.0105277978
 N         -2.2953322625       -1.4606218282        0.0515814519
 H         -2.4464358807        2.5064661058        0.0522270663
 H         -3.1753012043        1.1131349829        0.8603913280
 H         -3.1482283941        1.1995203190       -0.9035154830
 H         -0.0827849945        2.5144654161       -0.0025291536
 H          2.3239144599        2.5726383092        0.0002201595
 H          3.0664527766        1.2164242167       -0.8653961568
 H          3.0523014178        1.2259643724        0.8918355483
 H         -2.1243106528       -2.4392937656       -0.1124375935
 H         -3.1567636470       -1.0892932948       -0.3097728745
