  52
        -75.46645219
 C          5.0692447633        0.1843328697       -0.1187397303
 C          3.5727191765        0.0759472623       -0.0295927794
 C          2.8573721872        0.9003158965        0.8554832723
 C          3.4948247226        1.7738880928        1.7783958539
 C          2.7817484281        2.5714166544        2.6198619987
 C          1.3736331785        2.5581291137        2.5991345831
 C          0.7182145439        1.7267077694        1.7463848200
 C          1.4265752007        0.8704572572        0.8633556387
 C          0.7413227948        0.0018427460        0.0067859777
 C         -0.7412197262        0.0005228377       -0.0085186168
 C         -1.4283634668        0.8661847538       -0.8665669833
 C         -0.7223664653        1.7200917214       -1.7536913282
 C         -1.3802225906        2.5483825036       -2.6076595900
 C         -2.7883965750        2.5611255208       -2.6251594570
 C         -3.4992224792        1.7659744806       -1.7795156119
 C         -2.8590218175        0.8953073514       -0.8558294920
 C         -3.5725330302        0.0731353192        0.0328321925
 C         -5.0687095540        0.1847685737        0.1237807052
 C         -2.8798454676       -0.8505298955        0.8338017787
 C         -3.5396642544       -1.7977944315        1.6636982691
 C         -2.8476029800       -2.6743483802        2.4416544749
 C         -1.4393628914       -2.6653037027        2.4535527299
 C         -0.7626847588       -1.7905462045        1.6630724828
 C         -1.4486877118       -0.8740980737        0.8238018979
 C          1.4506162971       -0.8736237496       -0.8230712787
 C          0.7667517705       -1.7916617046       -1.6623103788
 C          1.4455728113       -2.6666888230       -2.4506835743
 C          2.8538003718       -2.6746564372       -2.4362795363
 C          3.5438294681       -1.7967944961       -1.6579649508
 C          2.8816474092       -0.8490976575       -0.8304808262
 H          5.3987889509        1.1987858522        0.0865478912
 H          5.4205638537       -0.0722341978       -1.1138626824
 H          5.5483265535       -0.4842617038        0.5980004549
 H          4.5716486749        1.7920348831        1.8344527272
 H          3.2938230450        3.2200475377        3.3160163617
 H          0.8251343344        3.2039184990        3.2689184306
 H         -0.3614095751        1.6958018710        1.7303061599
 H          0.3573108454        1.6896761904       -1.7400025096
 H         -0.8335700396        3.1921041247       -3.2809378786
 H         -3.3022926913        3.2074698603       -3.3220961755
 H         -4.5762075891        1.7833868408       -1.8325676057
 H         -5.3936312352        1.2041327578       -0.0647799318
 H         -5.4220146821       -0.0868953782        1.1140156245
 H         -5.5500406328       -0.4695388296       -0.6045259309
 H         -4.6170971254       -1.8446925041        1.6624555202
 H         -3.3766725220       -3.3888273330        3.0557856056
 H         -0.9076176579       -3.3613222513        3.0854482062
 H          0.3173790313       -1.7825514475        1.6518909620
 H         -0.3133408019       -1.7843788694       -1.6530998477
 H          0.9155105871       -3.3636685848       -3.0829326272
 H          3.3844762534       -3.3893482177       -3.0487751276
 H          4.6212976157       -1.8424977926       -1.6546869878
