  26
        -32.77618441
 C          3.5923834579       -1.0418448471        0.4552968199
 C          2.8641510621       -0.0845125427       -0.1041737820
 C          1.4042502661       -0.0280500105       -0.0950912976
 C          0.6531860377       -1.2016467170       -0.0972014859
 C         -0.7299845251       -1.2013806433       -0.1007406246
 C         -1.4783379796       -2.5016689593       -0.0927315257
 C         -1.4043062178        0.0278714872       -0.0945586202
 C         -2.8641890835        0.0842727703       -0.1030699403
 C         -3.5924355192        1.0428785020        0.4542249785
 C         -0.6531943646        1.2014670146       -0.0968185817
 C          0.7299592040        1.2011974023       -0.1008615609
 C          1.4784868439        2.5013681934       -0.0926087360
 H          4.6682773412       -1.0326093901        0.4104104603
 H          3.1473339548       -1.8608817009        0.9951863395
 H          3.3651842804        0.7350108797       -0.6026238947
 H          1.1746205461       -2.1479249467       -0.1171551611
 H         -0.7885769740       -3.3374843275       -0.0035444281
 H         -2.0451439589       -2.6256249842       -1.0158821543
 H         -2.1787123539       -2.5389324976        0.7404085036
 H         -3.3653848803       -0.7364994180       -0.5992621953
 H         -3.1475068303        1.8633775009        0.9919504462
 H         -4.6683373465        1.0333847861        0.4095178380
 H         -1.1745398945        2.1477922307       -0.1163339544
 H          0.7888036549        3.3373487971       -0.0044325999
 H          2.0463379236        2.6248691642       -1.0151626388
 H          2.1780117910        2.5387500875        0.7412541813
