38
 energy: -52.546708167571 gnorm: 0.000071923663 xtb: 6.4.1 (23d549d)
C         5.09071148360000   -2.37604956030000   -0.52060748980000
C         4.66477470890000   -1.12178493140000   -0.42675091150000
C         3.31424606330000   -0.67779764010000   -0.10894822990000
C         2.26815661280000   -1.55304604370000    0.17716381000000
C         1.00534479460000   -1.08273705810000    0.48007111100000
C         0.74278782370000    0.28220322660000    0.50784903190000
O        -0.46665957320000    0.83634486910000    0.81326619200000
C        -1.58949783780000    0.01573395060000    1.02714061110000
C        -2.16278453530000   -0.52710345730000   -0.30201304410000
C        -2.82829821990000    0.58562014830000   -1.12190714690000
C        -4.19730611640000    0.95703351950000   -0.55554835770000
C        -5.03442106920000   -0.31041658880000   -0.40641649470000
C        -4.27300278640000   -1.31531780900000    0.45541873460000
O        -3.01131485610000   -1.63769477630000   -0.09353529410000
C         1.78111137110000    1.19177791650000    0.21436509170000
C         1.50357098080000    2.62392533550000    0.25019275630000
C         2.22743293110000    3.57340929200000   -0.32905998650000
C         3.04012685620000    0.68827951080000   -0.08060626650000
H         6.11497779700000   -2.60210311660000   -0.76283918570000
H         4.44729901320000   -3.22461649970000   -0.36387630940000
H         5.36982574990000   -0.31750179330000   -0.60080801900000
H         2.43443471690000   -2.61865625860000    0.16903749160000
H         0.22723438000000   -1.79855861810000    0.69466862250000
H        -2.31150214990000    0.66847671980000    1.52371465950000
H        -1.36121394820000   -0.82175832420000    1.69759308230000
H        -1.32409740630000   -0.93580460430000   -0.87925739090000
H        -2.95370294460000    0.23097935700000   -2.14699853200000
H        -2.16317386030000    1.45019138920000   -1.13479163170000
H        -4.69256219620000    1.66459751490000   -1.22271068390000
H        -4.08807295810000    1.43994185070000    0.41793265520000
H        -5.21129602950000   -0.74892319850000   -1.39035003790000
H        -5.99779325180000   -0.09099416550000    0.05521152880000
H        -4.80587879570000   -2.26748798810000    0.50935731100000
H        -4.15905632740000   -0.92096225190000    1.47568819220000
H         0.60572074510000    2.89203752510000    0.78969623110000
H         3.11040946600000    3.36091978230000   -0.90781101550000
H         1.95263146720000    4.61155375260000   -0.25301773590000
H         3.84142013400000    1.38383208110000   -0.28106025760000
