  30
        -49.78216085
 C         -1.6442549269       -0.1149840464        2.8282046407
 C         -1.4952516627        0.3465920327        1.5939445390
 C         -1.5425267341       -0.4708623292        0.3819362724
 C         -2.3537116434       -1.6016278485        0.3159773235
 C         -2.4405710608       -2.3528460318       -0.8399643431
 C         -1.7236661412       -1.9772022337       -1.9638275866
 C         -0.9170963253       -0.8558564713       -1.9184817039
 C         -0.8066953814       -0.1033664531       -0.7549931839
 C          0.0839065260        1.0722047476       -0.7466127932
 C         -0.1234439236        2.0766005040       -1.6878654131
 C          0.6472516079        3.2236658739       -1.6927394662
 C          1.6403673530        3.3896343459       -0.7411497523
 C          1.8651410445        2.3984579700        0.1943657026
 C          1.1116279726        1.2265650252        0.1932680661
 C          1.4385046313        0.2004402364        1.1879409796
 C          1.5663318957       -1.0931053342        0.9548459162
 F          1.4404827826       -1.7174163327       -0.2089145629
 F          1.8869449539       -1.9835449363        1.8933560875
 H         -1.6136067991        0.5389101089        3.6829367944
 H         -1.7843230866       -1.1624384219        3.0364156426
 H         -1.3197703284        1.4037452893        1.4353115247
 H         -2.9389728689       -1.8780785653        1.1801912971
 H         -3.0736606962       -3.2274678796       -0.8674973998
 H         -1.7918973250       -2.5568146490       -2.8722050211
 H         -0.3406517575       -0.5670997124       -2.7853192041
 H         -0.9180984815        1.9553503908       -2.4098040324
 H          0.4669273798        3.9920460044       -2.4296070605
 H          2.2382678678        4.2884962020       -0.7289586387
 H          2.6464843477        2.5180281556        0.9308496054
 H          1.6477490802        0.5308378211        2.1945506875
