17
 energy: -33.662256919969 gnorm: 0.000103221980 xtb: 6.4.1 (23d549d)
C        -1.92468011940000    2.52739295390000   -0.35917976930000
C        -2.39326625770000    1.39423372040000    0.14860014490000
C        -1.73686805970000    0.10440027000000    0.09552923760000
C        -2.40674238890000   -1.14990101610000    0.05001936340000
C        -1.43836269200000   -2.10050881120000   -0.02129131550000
O        -0.21982972030000   -1.54402128540000   -0.00823098200000
C        -0.38544479150000   -0.20324992970000    0.06421583060000
C         0.76360575900000    0.65034685140000    0.17619472710000
C         2.02518712640000    0.25833296280000    0.03312013720000
F         2.45265526050000   -0.95687177670000   -0.27363067810000
F         3.06649331900000    1.07611970650000    0.17087309540000
H        -2.48232220330000    3.44508724770000   -0.28554356220000
H        -0.98907796670000    2.57788309570000   -0.88888307320000
H        -3.36915124140000    1.37968666390000    0.61757721470000
H        -3.46611869650000   -1.30469999280000    0.05436479560000
H        -1.48661692030000   -3.16980582050000   -0.08040777730000
H         0.58530074780000    1.68444802300000    0.41954372500000
