23
 energy: -33.976419442328 gnorm: 0.000030856943 xtb: 6.4.1 (23d549d)
C         3.66653193870000    0.17116704110000    0.60776540610000
C         2.73325746560000    0.80434459720000   -0.09343578440000
C         1.32068801860000    0.49320287180000   -0.10270247270000
S         0.24124388880000    1.85472937070000   -0.36236695390000
C        -1.15287559400000    0.84798726860000   -0.12444077870000
C        -2.48038650740000    1.24487135790000   -0.17309075440000
C        -3.45622428790000    0.29308323890000    0.03664322370000
C        -3.11148088110000   -1.03489164600000    0.28626503160000
C        -1.79302613350000   -1.42889249100000    0.33064360410000
C        -0.78265136950000   -0.48466399340000    0.13264425620000
C         0.64179747270000   -0.67329853310000    0.12959270210000
C         1.21797819480000   -2.00393489730000    0.29322983950000
C         2.18239183900000   -2.51257027870000   -0.45901615940000
H         4.69372024970000    0.49072033600000    0.58308944930000
H         3.43774170380000   -0.68038622080000    1.22456999710000
H         2.99905421840000    1.68168850030000   -0.67098054470000
H        -2.73424892370000    2.27450624640000   -0.37242800550000
H        -4.49700371300000    0.57790186440000    0.00432845890000
H        -3.89303259210000   -1.76331849420000    0.44396401960000
H        -1.53650805470000   -2.46088199890000    0.51619812150000
H         0.74855795100000   -2.61207298790000    1.05724359490000
H         2.64890240420000   -1.94129074930000   -1.24378969560000
H         2.54285054060000   -3.51642350280000   -0.31310312570000
