21
 energy: -34.450140681930 gnorm: 0.000019140549 xtb: 6.4.1 (23d549d)
C        -3.07461535910000    2.27433257340000    0.00316302950000
C        -3.22087133780000    0.95268423830000   -0.00276532560000
C        -2.16266376060000   -0.03893819080000   -0.00165681350000
C        -2.48708689920000   -1.38039983040000   -0.00158709580000
C        -1.52882363910000   -2.39870831610000    0.00016175160000
C        -0.17014271400000   -2.15631248220000    0.00088043560000
C         0.75541738250000   -3.27276103730000    0.00219410130000
C         2.08350967650000   -3.20699787490000   -0.00266498780000
C         0.22335578880000   -0.78598901010000    0.00030547120000
N         1.47548515570000   -0.34770258160000    0.00095633150000
Se        1.48771053850000    1.39998704190000    0.00035761500000
N        -0.25749782090000    1.49386895320000   -0.00070688920000
C        -0.77098082760000    0.27065316280000   -0.00056350020000
H        -3.93166452370000    2.92669384490000    0.00197639840000
H        -2.10386296150000    2.73538954380000    0.00936816950000
H        -4.21846242690000    0.52806709360000   -0.00845744880000
H        -3.53100813450000   -1.66115037240000   -0.00254303660000
H        -1.87242268380000   -3.42366387020000    0.00068978800000
H         0.27102378000000   -4.24274094900000    0.00714516990000
H         2.60264314240000   -2.26601571200000   -0.00808987510000
H         2.68264742330000   -4.10206358940000   -0.00138699340000
