  29
        -37.04782820
 C         -4.2677569111       -1.3957155388       -0.1721536400
 C         -3.0552750297       -1.7587346638        0.2375373881
 C         -1.9044983669       -0.9001441767        0.2731045054
 C         -0.6395995645       -1.2300172651        0.6875796758
 C          0.2864398274       -0.1733199506        0.6167593053
 C          1.7286046634       -0.3333459117        0.9844033498
 C          2.5847647693       -0.6155587502       -0.2559957605
 C          4.0604460007       -0.7789075355        0.0973047226
 C          4.9092058915       -1.0546464179       -1.1376087690
 C         -0.2778533543        0.9870384230        0.1298901282
 C          0.3611367347        2.2556707881       -0.0828698684
 C         -0.2290089144        3.3303444361       -0.6002499778
 S         -1.9672960262        0.7614741859       -0.2286944801
 H         -5.0941652513       -2.0839425948       -0.1757436465
 H         -4.4656252753       -0.3941584041       -0.5167139469
 H         -2.8729174517       -2.7695763218        0.5809883326
 H         -0.3825274786       -2.2139356699        1.0410819842
 H          1.8274513776       -1.1652176683        1.6850444998
 H          2.0960171255        0.5675068555        1.4806759169
 H          2.4680369139        0.2049959322       -0.9678540246
 H          2.2225156218       -1.5253835564       -0.7405182514
 H          4.1735178083       -1.6019016049        0.8070964869
 H          4.4173212462        0.1305746419        0.5868895315
 H          4.5836970140       -1.9697033676       -1.6277160817
 H          5.9564650393       -1.1645619093       -0.8657108982
 H          4.8231505550       -0.2368380700       -1.8499287692
 H          1.4020725086        2.3014487446        0.2093261555
 H         -1.2621872718        3.3118522208       -0.9055149799
 H          0.3007671437        4.2567394314       -0.7346778265
