  26
        -41.83437608
 C          4.2606251009        1.5358314430        0.1607846092
 C          2.9935537466        1.9245110824        0.0493224682
 C          1.8710476659        1.0240642973       -0.0046980035
 C          0.5300119160        1.2927153751       -0.1177253420
 C         -0.1301934790        0.0401265774       -0.1250663228
 C         -1.5696970343       -0.2004289204       -0.2275240183
 O         -2.0947257751       -1.2896779066       -0.2427089714
 O         -2.2487737074        0.9537284904       -0.3153747730
 C         -3.6682345107        0.8577617708       -0.4065709642
 C         -4.3059828857        0.6774885471        0.9640352757
 C          0.8691221168       -0.9205480651       -0.0135355017
 C          0.7639244900       -2.3534426861        0.0306819677
 C          1.8096294038       -3.1697786801        0.1439276927
 O          2.0666036611       -0.3164148749        0.0581216112
 H          5.0681524028        2.2450808091        0.1971099224
 H          4.5216057776        0.4930489777        0.2185243719
 H          2.7307614639        2.9712776605       -0.0088622956
 H          0.0658970010        2.2542632773       -0.1879389952
 H         -3.9262726849        0.0140400687       -1.0555692119
 H         -3.9861024860        1.7946723205       -0.8691118789
 H         -3.9882157919       -0.2673265863        1.3980905251
 H         -5.3877103469        0.6736014604        0.8650746812
 H         -4.0110253907        1.4881708970        1.6261615397
 H         -0.2479193225       -2.7247170132       -0.0363775398
 H          2.8152339416       -2.7893429285        0.2096451282
 H          1.6880170728       -4.2378596931        0.1737844297
  26
        -41.83267068
 C          4.4907238896        1.1067149016        0.1247492723
 C          3.3164376420        1.7123937168       -0.0272039666
 C          2.0489522979        1.0295114027       -0.0537654307
 C          0.7803357667        1.5289408681       -0.2032631758
 C         -0.0995043655        0.4191170167       -0.1577999252
 C         -1.5542743494        0.5442080161       -0.2798916287
 O         -2.1252057616        1.6022021973       -0.3932452067
 O         -2.1872305244       -0.6415477495       -0.2652696986
 C         -3.6109727624       -0.6076834382       -0.3605462785
 C         -4.2544530281       -0.3622469555        0.9968560735
 C          0.7062520991       -0.7002229949        0.0211862846
 C          0.3747855065       -2.0944392091        0.1454470981
 C          1.2817775349       -3.0544603904        0.3166029133
 O          1.9939425608       -0.3177863827        0.0821280698
 H          5.4134764610        1.6587609818        0.1383710202
 H          4.5576815949        0.0384151447        0.2397883824
 H          3.2485135755        2.7847129237       -0.1427867047
 H          0.4903712932        2.5510787581       -0.3315758927
 H         -3.8914293595       -1.5849218527       -0.7597731048
 H         -3.9006170740        0.1802865897       -1.0635613801
 H         -3.9285739150       -1.1155265215        1.7104343586
 H         -5.3355494913       -0.4061239908        0.9009282649
 H         -3.9729306871        0.6205419791        1.3667840193
 H         -0.6792447539       -2.3158952517        0.0888594530
 H          2.3335737756       -2.8302611178        0.3708670112
 H          0.9971078510       -4.0877039071        0.4062033324
  26
        -41.83250303
 C          3.8523040091        2.5129712629       -0.0181147337
 C          3.5279547816        1.2262073845        0.0650321853
 C          2.1838809379        0.7131530061        0.0036978628
 C          0.9627682782        1.3210885142       -0.1431086279
 C         -0.0070114863        0.2887799395       -0.1323289538
 C         -1.4443727514        0.5416005179       -0.2646190468
 O         -1.9194202679        1.6465727332       -0.3723494886
 O         -2.1789521537       -0.5839655017       -0.2659300823
 C         -3.5931650420       -0.4239774687       -0.3746889881
 C         -4.2260624467       -0.1201825564        0.9758586624
 C          0.6978024159       -0.9002442145        0.0239515071
 C          0.2480708327       -2.2639211171        0.1072722796
 C          1.0690580272       -3.3022881012        0.2538017956
 O          2.0119509337       -0.6285264134        0.1042128335
 H          4.8764881866        2.8364987090        0.0341821960
 H          3.1070981872        3.2791378753       -0.1404996662
 H          4.2902984769        0.4687647111        0.1880474868
 H          0.7550160044        2.3650574276       -0.2479223512
 H         -3.9551169544       -1.3731573082       -0.7759940573
 H         -3.8049901477        0.3854236844       -1.0811330086
 H         -3.9756510606       -0.8981800630        1.6933622936
 H         -5.3057442689       -0.0681125207        0.8687130466
 H         -3.8622698140        0.8344339971        1.3477539333
 H         -0.8206755122       -2.3927547963        0.0407365287
 H          2.1358358336       -3.1701956700        0.3181949543
 H          0.6968057982       -4.3095826873        0.3125859834
  26
        -41.83197303
 C          4.2399270929        1.8387031224       -0.1519065806
 C          2.9444873759        2.1146297879       -0.0319680513
 C          1.9040096382        1.1196110530        0.0062102818
 C          0.5470588060        1.2634973401        0.1269500204
 C         -0.0098344898       -0.0419339142        0.1110017760
 C         -1.4464073671       -0.3060818843        0.2182033304
 O         -1.9866113198       -1.3875774496        0.2195821232
 O         -2.1264298807        0.8473216370        0.3311035299
 C         -3.5447661145        0.7497652301        0.4304774268
 C         -4.1930807187        0.6007388917       -0.9390241010
 C          1.0701575703       -0.9135682115       -0.0221407643
 C          1.2533472115       -2.3395631367       -0.1082919043
 C          0.3099507583       -3.2765266082       -0.0690966955
 O          2.2087477993       -0.1961423373       -0.0833492934
 H          4.9832646342        2.6154862334       -0.1754648859
 H          4.5896098561        0.8234318424       -0.2294346473
 H          2.5920656109        3.1333717151        0.0460658432
 H         -0.0006890851        2.1781362740        0.2173911294
 H         -3.8584116286        1.6767113273        0.9156113596
 H         -3.7994691379       -0.1073915670        1.0629949455
 H         -3.9028806731        1.4262941908       -1.5847193137
 H         -5.2740302986        0.5948402811       -0.8319648981
 H         -3.8789968098       -0.3338765009       -1.3971733073
 H          2.2963447049       -2.6132599860       -0.2150086271
 H         -0.7305015966       -3.0296770079        0.0370035846
 H          0.5698947799       -4.3184605638       -0.1444903631
  26
        -41.83176399
 C          4.0094363935        2.3772566507       -0.1681638360
 C          3.6073598359        1.1175986328       -0.0287086072
 C          2.2329181052        0.6883518851       -0.0403380233
 C          1.0482330255        1.3655423509       -0.1828220388
 C          0.0173991558        0.3969138635       -0.1102188432
 C         -1.4048926164        0.7332107130       -0.2194403639
 O         -1.8154920769        1.8615452003       -0.3490031908
 O         -2.2031366137       -0.3443028611       -0.1582927329
 C         -3.6118695870       -0.1223048627       -0.2324760607
 C         -4.3184342536       -1.1314724126        0.6559261547
 C          0.6513486945       -0.8272731142        0.0755841836
 C          0.1210215077       -2.1562415270        0.2226015173
 C          0.8801540549       -3.2370791855        0.3935904236
 O          1.9813181054       -0.6353706373        0.1152000767
 H          5.0529199898        2.6366572745       -0.1512700994
 H          3.3108924235        3.1842342621       -0.3027947214
 H          4.3236922766        0.3183934522        0.1061711817
 H          0.9022968229        2.4158381572       -0.3227082492
 H         -3.9200635884       -0.2388633292       -1.2777535728
 H         -3.8227845999        0.9054887246        0.0816265792
 H         -4.0892545660       -2.1434106173        0.3319922540
 H         -5.3920360748       -0.9764234498        0.5998347464
 H         -3.9967408547       -1.0149436872        1.6877354076
 H         -0.9547965460       -2.2206533193        0.1837817479
 H          1.9541976662       -3.1689383391        0.4308470894
 H          0.4486189759       -4.2163825704        0.5006429469
  26
        -41.82866642
 C          4.5607459721        1.3414835535       -0.0048105152
 C          3.3429563472        1.8759616260        0.0041132728
 C          2.1222817069        1.1119353978       -0.0029841831
 C          0.8171618818        1.5304710706        0.0019632850
 C          0.0087778409        0.3653110478       -0.0203423870
 C         -1.4546954697        0.4849387265       -0.0483447917
 O         -2.0335664075        1.4949568510        0.2733239503
 O         -2.0810718591       -0.6060822151       -0.5115929501
 C         -3.5053501273       -0.5431253470       -0.5901581162
 C         -4.1553540388       -0.8514030682        0.7515430980
 C          0.8914376097       -0.7111885304       -0.0236178796
 C          0.8032731306       -2.1489403463        0.0185875906
 C         -0.2840724581       -2.9039653226        0.1409216402
 O          2.1563605776       -0.2394464532       -0.0151456278
 H          5.4457183148        1.9524153765        0.0013169403
 H          4.7024275608        0.2743129192       -0.0183738715
 H          3.1992679589        2.9469418536        0.0179639323
 H          0.4519822483        2.5365818515        0.0119983142
 H         -3.7789925932       -1.2856393834       -1.3428809131
 H         -3.7971507192        0.4567983142       -0.9276074463
 H         -3.8459140927       -1.8310178464        1.1090033867
 H         -5.2360644005       -0.8391642135        0.6429387942
 H         -3.8665500271       -0.1006066296        1.4829479020
 H          1.7799792186       -2.6150122454       -0.0353347092
 H         -1.2690767092       -2.4830346698        0.1993331720
 H         -0.2042193515       -3.9766325000        0.1778077489
  26
        -41.82850778
 C          3.8249141636        2.6735412715       -0.2796436000
 C          3.5874959072        1.3741630775       -0.1283479089
 C          2.2761266318        0.7826247297       -0.0642699503
 C          1.0124999398        1.3108502342       -0.1256492816
 C          0.1050227403        0.2292445851        0.0039313306
 C         -1.3417930798        0.4819576105        0.0034612964
 O         -1.8244505524        1.5099423938       -0.4078606616
 O         -2.0679644245       -0.5059656370        0.5453036578
 C         -3.4811526648       -0.3088162697        0.5980136640
 C         -4.1470438158       -0.6687942337       -0.7228664653
 C          0.8874401217       -0.9163211117        0.1253715241
 C          0.6731353574       -2.3375361929        0.2286351100
 C         -0.4755476142       -3.0040530818        0.1680028445
 O          2.1883352064       -0.5593037684        0.0842425103
 H          4.8282939552        3.0580564908       -0.3213099970
 H          3.0267462021        3.3895375331       -0.3669078504
 H          4.4016807402        0.6671594680       -0.0430962917
 H          0.7314329159        2.3366729319       -0.2401279429
 H         -3.6832418997        0.7380243919        0.8473216169
 H         -3.8262801410       -0.9580943043        1.4055890461
 H         -3.7878202923       -0.0094987920       -1.5092294327
 H         -5.2231292880       -0.5527300179       -0.6308063161
 H         -3.9231961060       -1.6980374756       -0.9944316125
 H          1.6048731233       -2.8786214208        0.3438049751
 H         -1.4194972102       -2.5077057715        0.0523826396
 H         -0.4896104268       -4.0776828684        0.2420370060
