  21
        -29.72335043
 C          1.1689210377        2.7172879536       -0.0085623123
 C          0.7553529402        1.2784448625       -0.0227639524
 C         -0.5861264409        0.9179454560       -0.0996759661
 C         -0.9218957180       -0.4280845200       -0.1103983566
 C         -2.3604528526       -0.8729850405       -0.1979063104
 O         -3.2903456759        0.0964644387        0.2166344042
 C          0.1055206457       -1.3605013600       -0.0458234315
 C          1.4192687173       -0.9122809332        0.0255029607
 C          2.5641585285       -1.8751493357        0.0947571828
 N          1.7250551544        0.3779703198        0.0397756172
 H          0.7272631027        3.2306265250        0.8439555405
 H          0.8298484808        3.2156774482       -0.9150247021
 H          2.2507586340        2.7831617103        0.0540303986
 H         -1.3560609269        1.6725898211       -0.1597479657
 H         -2.4893656638       -1.8058955040        0.3725784579
 H         -2.6077770179       -1.0839095577       -1.2441824717
 H         -3.0871725141        0.3518567686        1.1235874594
 H         -0.1113688544       -2.4185839109       -0.0514963660
 H          2.4618072850       -2.5248008123        0.9622902274
 H          3.4968436872       -1.3241257346        0.1662880294
 H          2.5845710080       -2.5011274216       -0.7957847318
