  21
        -29.72335043
 C          1.1689210377        2.7172879536       -0.0085623123
 C          0.7553529402        1.2784448625       -0.0227639524
 C         -0.5861264409        0.9179454560       -0.0996759661
 C         -0.9218957180       -0.4280845200       -0.1103983566
 C         -2.3604528526       -0.8729850405       -0.1979063104
 O         -3.2903456759        0.0964644387        0.2166344042
 C          0.1055206457       -1.3605013600       -0.0458234315
 C          1.4192687173       -0.9122809332        0.0255029607
 C          2.5641585285       -1.8751493357        0.0947571828
 N          1.7250551544        0.3779703198        0.0397756172
 H          0.7272631027        3.2306265250        0.8439555405
 H          0.8298484808        3.2156774482       -0.9150247021
 H          2.2507586340        2.7831617103        0.0540303986
 H         -1.3560609269        1.6725898211       -0.1597479657
 H         -2.4893656638       -1.8058955040        0.3725784579
 H         -2.6077770179       -1.0839095577       -1.2441824717
 H         -3.0871725141        0.3518567686        1.1235874594
 H         -0.1113688544       -2.4185839109       -0.0514963660
 H          2.4618072850       -2.5248008123        0.9622902274
 H          3.4968436872       -1.3241257346        0.1662880294
 H          2.5845710080       -2.5011274216       -0.7957847318
  21
        -29.72229356
 C          1.2905102929        2.7376864655       -0.0137176927
 C          0.8024621975        1.3236650705        0.0532065824
 C         -0.5439802560        1.0342104416        0.2446349376
 C         -0.9496175457       -0.2939313465        0.3021291321
 C         -2.4095001843       -0.6351695971        0.4648868905
 O         -3.1376810827       -0.4362156629       -0.7286548088
 C          0.0171360934       -1.2777173649        0.1589337417
 C          1.3438366496       -0.8999301547       -0.0276674189
 C          2.4249695971       -1.9233878858       -0.1836330086
 N          1.7145713903        0.3710706659       -0.0774253661
 H          1.0270896725        3.2734334218        0.8966422539
 H          0.8341296717        3.2561022853       -0.8556193450
 H          2.3693673676        2.7426136118       -0.1344733118
 H         -1.2597586873        1.8370000604        0.3565825429
 H         -2.8409529333       -0.0305438930        1.2783704337
 H         -2.5331930808       -1.6919247171        0.7103850103
 H         -2.9848435076        0.4646154382       -1.0359362543
 H         -0.2532866575       -2.3221667000        0.1910471013
 H          2.2231438520       -2.5568011425       -1.0456518359
 H          2.4731535615       -2.5591266156        0.6988222774
 H          3.3799076630       -1.4251214272       -0.3197688842
  21
        -29.72158718
 C          1.3511950524        2.7414743366       -0.0243451716
 C          0.8193566882        1.3441368431        0.0528812200
 C         -0.5319254719        1.0854932385        0.2553843371
 C         -0.9644475213       -0.2330079932        0.3242916058
 C         -2.4292736941       -0.5520793331        0.4860577346
 O         -3.0872891163       -0.6398883412       -0.7616433563
 C         -0.0214311595       -1.2403410523        0.1769767113
 C          1.3106830362       -0.8939124375       -0.0242065971
 C          2.3775049945       -1.9311630336       -0.1863212059
 N          1.7072630269        0.3696358742       -0.0817136558
 H          0.5548157414        3.4722554081        0.0858471897
 H          1.8502112118        2.8918175209       -0.9794558442
 H          2.0914914523        2.8948376217        0.7582265184
 H         -1.2333551453        1.9004166915        0.3661822887
 H         -2.9104509310        0.2101519213        1.1176913237
 H         -2.5609439888       -1.5307125847        0.9528942684
 H         -2.9351321490        0.1780954481       -1.2483626929
 H         -0.3211533876       -2.2762925487        0.2166830321
 H          1.9600456589       -2.9329205398       -0.1410979783
 H          3.1236639424       -1.8150507425        0.5972484792
 H          2.8817313713       -1.7923627560       -1.1403978472
