23
 energy: -38.664323935565 gnorm: 0.000113794912 xtb: 6.4.1 (23d549d)
C        -3.60535910990000   -2.37460018600000   -0.00162832630000
C        -3.23858567930000   -1.09660960510000   -0.00081622020000
C        -1.87487077740000   -0.63400642920000   -0.00031687640000
C        -0.67036397000000   -1.29074592430000   -0.00003146920000
C         0.33457023640000   -0.29228556260000   -0.00007733930000
C         1.76586360690000   -0.60018359800000    0.00013984170000
O         2.21328783220000   -1.72128655900000    0.00292514340000
O         2.54781504990000    0.49632922250000   -0.00220970860000
C         3.94580192530000    0.24961209650000   -0.00161965160000
C        -0.33427921120000    0.92761398740000   -0.00016496260000
C         0.15964028510000    2.27846872390000    0.00023118580000
C        -0.62998049540000    3.35095003630000    0.00361842310000
O        -1.65981095380000    0.70524133620000   -0.00023834010000
H        -4.64241000710000   -2.65901129560000   -0.00170891400000
H        -2.88349710540000   -3.17222372530000   -0.00167099880000
H        -3.97810913570000   -0.30724512630000   -0.00043297890000
H        -0.49516221690000   -2.34586640660000    0.00008889760000
H         4.42658716410000    1.22443958370000    0.00725953070000
H         4.23259717790000   -0.31207651320000   -0.89309313660000
H         4.22931142060000   -0.32707067700000    0.88127607150000
H         1.23445384790000    2.36768538830000   -0.00199748770000
H        -1.70284498380000    3.25865582210000    0.00649934980000
H        -0.22490334960000    4.34720581640000    0.00413568390000
