  21
        -34.45001562
 C         -4.2820129341        1.1000046545        0.0184819630
 C         -2.9565791515        1.2041160300       -0.0025551091
 C         -2.0052848089        0.1080032522       -0.0040717745
 C         -2.3382753397       -1.2305779643       -0.0074905542
 C         -1.3810304505       -2.2526853840       -0.0076634866
 C         -0.0235211865       -2.0080529143       -0.0044581530
 C          1.0079387421       -3.0290822699       -0.0034624745
 C          0.8172825728       -4.3448369831        0.0194188403
 C          0.3719521115       -0.6402039116       -0.0033397555
 N          1.6288225585       -0.2122214707       -0.0019631109
 Se         1.6406706218        1.5365476675       -0.0003471133
 N         -0.1051198502        1.6392135326       -0.0014667319
 C         -0.6144726830        0.4130595346       -0.0030869076
 H         -4.9086224858        1.9749079732        0.0185509310
 H         -4.7944246626        0.1531529928        0.0374875207
 H         -2.4942747585        2.1818983286       -0.0180632917
 H         -3.3796398401       -1.5138727467       -0.0113217616
 H         -1.7318867013       -3.2732655929       -0.0117469522
 H          2.0138358841       -2.6318236486       -0.0210468005
 H         -0.1610806485       -4.7941114961        0.0405912680
 H          1.6492498173       -5.0274337336        0.0192828743
