  22
        -34.71165064
 C         -3.8073164859       -1.4642950452       -0.0001884948
 C         -3.1427483134       -0.3161921760       -0.0000143088
 C         -1.6938687782       -0.1544988138        0.0004931576
 C         -0.7839223310       -1.2380669762        0.0010896849
 C          0.5790199576       -1.0263345907        0.0006742509
 C          1.5092628066       -2.1403875841        0.0007429102
 C          2.8319835273       -2.0153364746        0.0009192827
 C          1.0011851443        0.3248687583       -0.0000715642
 N          2.1974852192        0.8838336766       -0.0007033305
 C          1.9859641253        2.2131150465       -0.0013136977
 C          0.6427340434        2.5055919480       -0.0010538803
 N          0.0111837385        1.3079244335       -0.0002540783
 N         -1.2899870449        1.0971313151       -0.0001215037
 H         -4.8833577356       -1.4831018205       -0.0010537469
 H         -3.3208088427       -2.4248529255        0.0007120389
 H         -3.6747026508        0.6251525257       -0.0008864057
 H         -1.1624592236       -2.2472599875        0.0018280843
 H          1.0442255057       -3.1189478058        0.0005919409
 H          3.2920452374       -1.0422122065        0.0008525894
 H          3.4760462645       -2.8784585792        0.0010765568
 H          2.8130169604        2.8956489781       -0.0019503689
 H          0.1086509653        3.4317163884       -0.0013990177
