  21
        -37.85048702
 C          3.4674382840        1.4731338328       -0.7299355527
 C          2.4230002212        0.4919021022       -0.2992377012
 C          2.7575167709       -0.7735064762        0.1660128640
 C          1.7833395547       -1.6779650832        0.5546575863
 C          0.4351751537       -1.3458734972        0.4908463635
 C         -0.6499511835       -2.2846590626        0.8976934669
 C          0.1189057442       -0.0774879397        0.0240533496
 S         -1.6129868185        0.3051097486       -0.0399208093
 O         -2.2872082612       -0.4392697333       -1.0453738837
 O         -2.1817039406        0.4261070874        1.2568127262
 F         -1.5248531373        1.8478624413       -0.6237506119
 C          1.0736940769        0.8326112264       -0.3659872302
 H          4.4647301286        1.1040160521       -0.5073412871
 H          3.3241682873        2.4268286328       -0.2259911510
 H          3.3949717129        1.6509420019       -1.8020742472
 H          3.7977636116       -1.0582338751        0.2262707468
 H          2.0726900940       -2.6546773917        0.9125873256
 H         -0.2384559749       -3.2334024901        1.2338334340
 H         -1.3230793196       -2.4611121566        0.0599674781
 H         -1.2415272912       -1.8450687915        1.6994441324
 H          0.7771318022        1.8058654293       -0.7217353582
