  17
        -25.20776068
 C          3.0085850069        0.9888806459       -0.0054584434
 C          1.6856260568        1.1138696970        0.0046003894
 C          0.7517352498        0.0131776308        0.0024687376
 C          1.0451709186       -1.3806158597        0.0008213018
 C         -0.1511867019       -2.0216444266       -0.0005778479
 O         -1.1686374673       -1.1468523725       -0.0002148281
 C         -0.6341214756        0.0973964598        0.0017606014
 C         -1.5027732085        1.2434826762        0.0010834401
 C         -2.8321299652        1.1740732422       -0.0034045562
 H          3.6546399718        1.8495383528       -0.0030989034
 H          3.4937648074        0.0282444973       -0.0169772431
 H          1.2433264153        2.1012110206        0.0151947020
 H          2.0130594796       -1.8368878453        0.0012588980
 H         -0.4038470512       -3.0639141451       -0.0017433438
 H         -1.0013914044        2.2006939945        0.0041178901
 H         -3.3419659179        0.2260518698       -0.0067814828
 H         -3.4435295905        2.0589021601       -0.0039762544
