  24
        -42.12856024
 C         -2.2102493288       -2.6684173062       -0.5319160563
 C         -1.0357214810       -2.7811531069        0.0753630462
 C          0.0175336491       -1.7700266188        0.1060792758
 C          1.3428973571       -2.2016724403        0.0131149740
 C          2.3912776690       -1.3145915619       -0.0381669421
 C          2.1473097933        0.0604593013        0.0238434101
 O          3.2408515397        0.8629877144       -0.0378053914
 C          3.0588140459        2.2587888257        0.0043207873
 C          0.8412186349        0.5072048325        0.1589724797
 C         -0.2263505952       -0.3906857692        0.1988139654
 C         -1.5805649574        0.1016094947        0.4255034916
 C         -2.0653319513        1.2788486485        0.0664847982
 F         -1.4461261001        2.2356131487       -0.6216756993
 F         -3.3090035933        1.6785140585        0.3347720413
 H         -2.9228589141       -3.4757103905       -0.5290592218
 H         -2.4931813102       -1.7850252542       -1.0788850749
 H         -0.7751648740       -3.7183474392        0.5528067762
 H          1.5421845583       -3.2620596482       -0.0411201657
 H          3.4110898833       -1.6540838728       -0.1228131016
 H          4.0543354990        2.6877463851       -0.0974642409
 H          2.6239291375        2.5783412492        0.9567565435
 H          2.4276589326        2.6068127948       -0.8191030076
 H          0.6357196906        1.5597949948        0.2570553965
 H         -2.2643112207       -0.5555217710        0.9427495319
  24
        -42.12839159
 C         -1.3326941449       -3.8213974226       -0.3370875262
 C         -1.3079953743       -2.5802535991        0.1309288918
 C         -0.1634780166       -1.6759499044        0.0275581408
 C          1.1356384590       -2.1804669299        0.0977977580
 C          2.2346732984       -1.3547721867        0.0572125886
 C          2.0695108194        0.0277645945       -0.0588617761
 O          3.2099795334        0.7646240609       -0.0873257055
 C          3.1078298959        2.1665447626       -0.1721418390
 C          0.7859226443        0.5485795557       -0.1398404614
 C         -0.3301051951       -0.2864953648       -0.0947265074
 C         -1.6715738528        0.2725681887       -0.2342731988
 C         -2.0619633621        1.4945448894        0.0909330482
 F         -1.3344726891        2.4634835773        0.6391356678
 F         -3.3071414456        1.9379260007       -0.0806060856
 H         -2.1969941013       -4.4520037392       -0.2183151108
 H         -0.5001573494       -4.2494581164       -0.8695932580
 H         -2.1794586279       -2.1884669521        0.6391885887
 H          1.2774517484       -3.2440571223        0.2125161858
 H          3.2358143253       -1.7502947955        0.1195488912
 H          4.1310121097        2.5375386533       -0.1430222117
 H          2.5475734159        2.5806540483        0.6717717510
 H          2.6374574678        2.4789694609       -1.1099399877
 H          0.6383930038        1.6083376641       -0.2602040083
 H         -2.4384082379       -0.3655511391       -0.6463177745
  24
        -42.12751115
 C         -1.1465476287       -3.7971587790       -0.2954284282
 C         -1.2135108093       -2.5481641822        0.1466848544
 C         -0.1386478352       -1.5638068497        0.0296448826
 C          1.1904780590       -1.9644424879        0.1052827774
 C          2.2359509787       -1.0619750869        0.0488955636
 C          1.9643161996        0.2956709876       -0.0862772714
 O          2.8999736301        1.2787259365       -0.1556577660
 C          4.2591320789        0.9218426799       -0.0845193165
 C          0.6380175597        0.7163123645       -0.1663006381
 C         -0.4121389465       -0.1882937826       -0.1101969227
 C         -1.7931182698        0.2644681428       -0.2567072017
 C         -2.2749891800        1.4487495462        0.0834973145
 F         -1.6280263117        2.4551863510        0.6576510455
 F         -3.5487207759        1.7999451912       -0.0943215423
 H         -1.9637888785       -4.4858133447       -0.1664787968
 H         -0.2832197980       -4.1753449986       -0.8167104618
 H         -2.1136665347       -2.2093888225        0.6428211691
 H          1.4136427870       -3.0124579145        0.2361712598
 H          3.2487784443       -1.4259104322        0.1175760872
 H          4.8128154014        1.8562292386       -0.1602471528
 H          4.5462191947        0.2639148381       -0.9112180945
 H          4.4984567017        0.4367025965        0.8672706963
 H          0.4567698956        1.7708902574       -0.2922677757
 H         -2.5033284422       -0.4244417182       -0.6880609622
  24
        -42.12673085
 C         -1.5974512553       -2.8719680510       -0.8221434479
 C         -1.3430962053       -1.8694079240        0.0075171844
 C         -0.1242711107       -1.0656571765        0.0060752201
 C          1.0964243419       -1.6329383941       -0.3494126251
 C          2.2838252463       -0.9300884757       -0.2855909738
 C          2.2817615485        0.3865043759        0.1659111612
 O          3.3826262760        1.1751235139        0.2932190932
 C          4.6355600758        0.6434241525       -0.0642864852
 C          1.0708991889        0.9698976225        0.5290943707
 C         -0.1253039507        0.2730002298        0.4364902129
 C         -1.3495748290        0.9944944110        0.7901282765
 C         -2.4857428533        0.9755370441        0.1150406740
 F         -2.7457152064        0.3194275921       -1.0082949408
 F         -3.5649405648        1.6742313431        0.4687807011
 H         -2.5099199030       -3.4385467069       -0.7569942856
 H         -0.9201856630       -3.1482159048       -1.6124276244
 H         -2.0746827421       -1.6032138562        0.7606230301
 H          1.1186067611       -2.6651778399       -0.6638212741
 H          3.2004999364       -1.4201507941       -0.5729608252
 H          5.3548889847        1.4414329321        0.1123608949
 H          4.6648080358        0.3582296247       -1.1207645155
 H          4.8967206647       -0.2214320975        0.5540841008
 H          1.0805898976        1.9943352507        0.8674444819
 H         -1.3097523377        1.6526594118        1.6455504685
  24
        -42.12532956
 C         -2.1070881445       -2.1833159748       -0.7521048165
 C         -1.1864762075       -2.0497758597        0.1908733265
 C         -0.0410110928       -1.1391046796        0.1234578762
 C          1.2082600275       -1.6264189900        0.4945461656
 C          2.3626224246       -0.8775445073        0.3644360902
 C          2.2885035565        0.4106984815       -0.1550609961
 O          3.3475778887        1.2416019076       -0.3502976331
 C          4.6330480019        0.7835624885       -0.0065764129
 C          1.0413369834        0.9245329312       -0.5029141293
 C         -0.1191478430        0.1796558279       -0.3517483691
 C         -1.3872901491        0.8511826840       -0.6572080690
 C         -2.4568486345        0.8428523118        0.1170225137
 F         -2.5983314557        0.2084526785        1.2740627930
 F         -3.5816365927        1.5015571660       -0.1605259962
 H         -2.9051698892       -2.9000666192       -0.6636340950
 H         -2.0952947601       -1.5882651985       -1.6505012599
 H         -1.2099067634       -2.6943881356        1.0602870659
 H          1.2794026657       -2.6339072555        0.8784047907
 H          3.3053047950       -1.3076991766        0.6629516355
 H          5.3108256732        1.6006537516       -0.2482391304
 H          4.9131003655       -0.1016747386       -0.5865838994
 H          4.7067886897        0.5574095296        1.0619878122
 H          0.9947429658        1.9364467268       -0.8743263814
 H         -1.4287100723        1.4706986542       -1.5403918175
