26
 energy: -49.805249050208 gnorm: 0.000026459704 xtb: 6.4.1 (23d549d)
C         3.39381424010000   -2.26265043870000    0.71069441980000
C         2.26388644130000   -2.04807321740000    0.04783813520000
C         1.52925031920000   -0.78380723070000   -0.03262318130000
C         0.13864818040000   -0.85878357370000    0.02555069060000
C        -0.61671392940000    0.29420251510000   -0.00852214030000
O        -2.03217487390000    0.32469200120000    0.06303900260000
C        -2.71679710740000   -0.79093337900000    0.04567521410000
F        -2.51249489880000   -1.59605324470000    1.10832537570000
F        -4.01694925120000   -0.50347004330000    0.04190191460000
F        -2.49624783000000   -1.57033438700000   -1.03220575130000
C        -0.01056026210000    1.53168319060000   -0.12710174300000
C         1.36994116730000    1.63521006980000   -0.22797685470000
C         1.97836990530000    2.95394995520000   -0.40835002260000
C         1.52613545840000    4.07567185450000    0.13458590250000
C         2.16108582870000    0.46623961720000   -0.18000518070000
N         3.53124477820000    0.54930176990000   -0.22427995210000
H         3.84786404410000   -3.23901281410000    0.73520274930000
H         3.87759034920000   -1.49605815810000    1.29191202160000
H         1.78067532240000   -2.87859323310000   -0.45311712820000
H        -0.31434554410000   -1.83313351460000    0.11832638310000
H        -0.62927136700000    2.41172950660000   -0.17448736880000
H         2.85254686160000    2.99972655470000   -1.04822492000000
H         0.67852114050000    4.08559008350000    0.79798326180000
H         1.99947537020000    5.02426395700000   -0.05151153780000
H         3.92120132500000    1.40408172610000   -0.58524023540000
H         4.01202326890000   -0.29366545440000   -0.49823573820000
