  22
        -29.86979058
 C          3.6225274102        0.0107335477       -0.4246416761
 C          2.5437882316       -0.4576629997        0.1881953912
 C          1.2108888632        0.1389524574        0.1100123270
 C          1.0742175680        1.5214635279        0.0409978592
 C         -0.1719268093        2.1167344571        0.0022316650
 C         -1.3054694700        1.3281081311        0.0450904006
 C         -1.2170161494       -0.0583541842        0.1140863626
 C         -2.4358282140       -0.8622811803        0.1964821897
 C         -3.5787824795       -0.5733846683       -0.4108459141
 C          0.0544083517       -0.6664358321        0.1311133777
 N          0.1655938328       -2.0345504968        0.0409703491
 H          4.5872778127       -0.4531263469       -0.3083049053
 H          3.5793672818        0.8657349139       -1.0776673419
 H          2.6429200875       -1.3379652847        0.8154156024
 H          1.9640087623        2.1329307822        0.0443211969
 H         -0.2593592577        3.1918451004       -0.0429861981
 H         -2.2822483557        1.7879755077        0.0516713068
 H         -2.3888832095       -1.7479356090        0.8222340445
 H         -3.6772796018        0.2781931123       -1.0623406480
 H         -4.4554105592       -1.1871521649       -0.2914116171
 H         -0.6428706068       -2.5807215854        0.2847221261
 H          1.0526526167       -2.4426023577        0.2817160883
