22
 energy: -29.869790577024 gnorm: 0.000059875310 xtb: 6.4.1 (23d549d)
C         3.62252741020000    0.01073354770000   -0.42464167610000
C         2.54378823160000   -0.45766299970000    0.18819539120000
C         1.21088886320000    0.13895245740000    0.11001232700000
C         1.07421756800000    1.52146352790000    0.04099785920000
C        -0.17192680930000    2.11673445710000    0.00223166500000
C        -1.30546947000000    1.32810813110000    0.04509040060000
C        -1.21701614940000   -0.05835418420000    0.11408636260000
C        -2.43582821400000   -0.86228118030000    0.19648218970000
C        -3.57878247950000   -0.57338466830000   -0.41084591410000
C         0.05440835170000   -0.66643583210000    0.13111337770000
N         0.16559383280000   -2.03455049680000    0.04097034910000
H         4.58727781270000   -0.45312634690000   -0.30830490530000
H         3.57936728180000    0.86573491390000   -1.07766734190000
H         2.64292008750000   -1.33796528470000    0.81541560240000
H         1.96400876230000    2.13293078220000    0.04432119690000
H        -0.25935925770000    3.19184510040000   -0.04298619810000
H        -2.28224835570000    1.78797550770000    0.05167130680000
H        -2.38888320950000   -1.74793560900000    0.82223404450000
H        -3.67727960180000    0.27819311230000   -1.06234064800000
H        -4.45541055920000   -1.18715216490000   -0.29141161710000
H        -0.64287060680000   -2.58072158540000    0.28472212610000
H         1.05265261670000   -2.44260235770000    0.28171608830000
