  16
        -22.76220506
 C          2.8379003691       -0.0247191718        0.0000466080
 C          1.3444392936       -0.0196763348       -0.0000536056
 C          0.5845443747       -1.1864314595       -0.0000510818
 N         -0.7378884549       -1.1677477467        0.0000192342
 C         -1.3441293284        0.0140464692        0.0000540101
 C         -2.8377854612        0.0299688084        0.0000104063
 C         -0.5830862380        1.1838397400        0.0000115005
 N          0.7359068558        1.1652235629       -0.0000401876
 H          3.2221659612       -1.0409818140       -0.0012658116
 H          3.2072144918        0.5011286422        0.8784820605
 H          3.2073579529        0.5035480323       -0.8768599589
 H          1.0444266719       -2.1662658272       -0.0000423018
 H         -3.2107246233       -0.9900575175        0.0019276108
 H         -3.2095657978        0.5486382057       -0.8822043734
 H         -3.2096771730        0.5521719805        0.8800716028
 H         -1.0460989283        2.1623129484       -0.0000302083
