  19
        -34.74356023
 C          2.5485840847       -1.7723328177       -0.0000076005
 C          1.2388423839       -1.0503209614        0.0000083227
 C          0.0245628750       -1.7167520415        0.0000045606
 C         -1.1972064026       -1.0571881353       -0.0000031113
 C         -2.5057172416       -1.7841844220        0.0000041391
 C         -1.1769903672        0.3317085669       -0.0000050623
 F         -2.3368877954        1.0181054660       -0.0000046931
 C          0.0231369222        1.0210353039       -0.0000006264
 F          0.0487561899        2.3796023378        0.0000019368
 C          1.2408392146        0.3477366191        0.0000022224
 O          2.4184434519        1.0191650904        0.0000029945
 H          2.3998817486       -2.8477795819        0.0004541897
 H          3.1291248249       -1.4888145939        0.8761247200
 H          3.1287063692       -1.4895357443       -0.8766544563
 H          0.0276147597       -2.7963631230        0.0000161404
 H         -2.3483810891       -2.8585751331       -0.0000924632
 H         -3.0892347023       -1.5106490522       -0.8780449486
 H         -3.0891469619       -1.5107980207        0.8781592977
 H          2.2448690584        1.9705339471        0.0000080457
