  47
        -56.02863805
 C          2.4352464527       -4.1167125250       -0.8192210274
 C          2.7529552510       -2.8608636646       -1.1203090771
 C          2.3015077952       -1.7004539895       -0.4034750147
 C          2.6023814921       -0.3923980884       -0.6750168662
 C          2.0239407598        0.5391014053        0.2132797389
 C          2.1503183189        2.0187391267        0.0190451615
 C          1.7423107613        2.4539975000       -1.3951239613
 C          0.3578471513        1.9504125025       -1.8047599860
 C         -0.7519472866        2.4246175832       -0.8694468818
 C         -2.1537215346        2.1157612669       -1.3968047119
 C         -2.4430039424        0.6301850136       -1.6239242007
 C         -2.2383849564       -0.2656436298       -0.4011314667
 C         -3.0549255347        0.1226121974        0.8328091038
 C         -4.5697062532        0.1493164528        0.6238443466
 C         -5.1488508261       -1.2111479950        0.2542648806
 C          1.2762968456       -0.0756072281        1.1911022094
 C          0.5351974970        0.4607337047        2.3095957220
 C          0.8620083331        1.5300644060        3.0284086380
 S          1.2609053210       -1.8077355184        0.9831649832
 H          2.8048406761       -4.9477729327       -1.3931057789
 H          1.7929999611       -4.3477800015        0.0147237559
 H          3.4001042026       -2.6456577048       -1.9616978685
 H          3.2320519872       -0.1058829811       -1.4993211605
 H          3.1873509280        2.3202754576        0.1953739860
 H          1.5229966885        2.5370412449        0.7420974283
 H          2.4746810875        2.0886026768       -2.1180537516
 H          1.7583367690        3.5459445071       -1.4346421384
 H          0.3731331016        0.8597753604       -1.8313159387
 H          0.1460526356        2.3041564065       -2.8172555093
 H         -0.6665601127        3.5074160750       -0.7404318017
 H         -0.6268090092        1.9656428365        0.1114247560
 H         -2.2958505178        2.6370386954       -2.3477642186
 H         -2.8843225289        2.5213285777       -0.6937543981
 H         -1.8010179965        0.2598030875       -2.4262825145
 H         -3.4734863541        0.5347806775       -1.9731598647
 H         -1.1824055332       -0.2581591444       -0.1260523901
 H         -2.4835774081       -1.2912318201       -0.6849540395
 H         -2.7332370071        1.1059012912        1.1825112689
 H         -2.8284412035       -0.5947325164        1.6266091020
 H         -4.8243992789        0.8750180113       -0.1502650905
 H         -5.0347404658        0.4895353515        1.5530184139
 H         -4.7893655156       -1.5379316183       -0.7179669050
 H         -6.2349253407       -1.1609721145        0.2136847765
 H         -4.8678316702       -1.9579647108        0.9940587321
 H         -0.3387819815       -0.1165178343        2.5865635322
 H          1.7555101911        2.1010946547        2.8458936849
 H          0.2464836020        1.8540924000        3.8498623777
