  48
        -55.80449098
 C          3.8008947426       -2.5405040592        0.3714196535
 C          3.7061829631       -1.2963818498       -0.0819057990
 C          2.5054747998       -0.4884352179       -0.0343181565
 C          1.2125864729       -0.9445833133       -0.0292007256
 N          0.3365737826        0.1019881606       -0.0711768191
 Si        -1.4347308670        0.1222203441       -0.0381191880
 C         -1.8880746533        1.0607377295        1.5861448913
 C         -3.3498767666        0.8804753110        1.9935145976
 C         -0.9696018348        0.6943024320        2.7526645290
 C         -1.9595020052        1.2075593822       -1.5450515188
 C         -1.0749181465        0.9915224619       -2.7734535499
 C         -3.4281485408        1.0200001153       -1.9241318986
 C         -2.1771963916       -1.6496190965       -0.1203530274
 C         -1.8036525512       -2.4012231212       -1.3993555907
 C         -1.8559255010       -2.5089900023        1.1033845257
 C          1.0858568984        1.2468658728       -0.1039294081
 C          2.4223433802        0.9444241423       -0.0770880850
 C          3.4888187743        1.9237657357       -0.0562841870
 C          4.6977990389        1.7493880423        0.4637159961
 H          4.7132604410       -3.1062098225        0.2891572948
 H          2.9729455516       -3.0354765091        0.8506482366
 H          4.5655497629       -0.8227621426       -0.5390031894
 H          0.8638225773       -1.9560076189       -0.0326348692
 H         -1.7414726665        2.1297579569        1.3921571197
 H         -3.5671192175       -0.1608295132        2.2161035740
 H         -4.0183471015        1.2048708426        1.2004196047
 H         -3.5707889446        1.4680867286        2.8834084917
 H         -1.0785888327       -0.3522396858        3.0234464453
 H         -1.2113574086        1.2965311461        3.6273173679
 H          0.0714760843        0.8711163013        2.4952526305
 H         -1.8400975477        2.2556340581       -1.2470328226
 H         -1.1695157576       -0.0233298373       -3.1498772627
 H         -0.0293792095        1.1671113129       -2.5346407122
 H         -1.3629510241        1.6754636056       -3.5706897013
 H         -3.6161987588        0.0034462906       -2.2593870894
 H         -3.7004583820        1.6966681191       -2.7328458667
 H         -4.0794578935        1.2250535184       -1.0786699270
 H         -3.2652319775       -1.5187399926       -0.1355205042
 H         -0.7278627000       -2.5233523095       -1.4888419218
 H         -2.1572028866       -1.8716709692       -2.2795352829
 H         -2.2582643104       -3.3914605209       -1.3990005584
 H         -0.7853159742       -2.6479154903        1.2228746120
 H         -2.3148549812       -3.4920049288        1.0012217421
 H         -2.2404427694       -2.0536285547        2.0115974505
 H          0.6116920086        2.2084580170       -0.1190443573
 H          3.2242388805        2.8853077362       -0.4819268595
 H          4.9885390371        0.8302029412        0.9420552844
 H          5.4355319819        2.5340259077        0.4455244108
