  24
        -45.67213920
 C         -5.9304722779       -1.3664307653        0.0217837495
 C         -5.4888983113       -0.1112584282        0.0138051970
 C         -4.1066458163        0.2763922610        0.0043155029
 C         -3.6057661112        1.5561418346        0.0011872945
 C         -2.2085703051        1.6127633582       -0.0060705597
 C         -1.6164816964        0.3715412683       -0.0092543677
 C         -0.2280236930        0.0581915000       -0.0133084136
 C          0.3650514570       -1.1836409639       -0.0222630278
 C          1.7620260664       -1.1363557426       -0.0193553354
 C          2.2616246330        0.1442121297       -0.0079437591
 C          3.6162593504        0.6133940209        0.0014656434
 C          4.7087393854       -0.1435126022        0.0085971861
 F          4.7574992287       -1.4712174368        0.0073026196
 F          5.9451975360        0.3461990875        0.0185288016
 S          0.9730313638        1.3146468053       -0.0022599116
 S         -2.8157260715       -0.8896114512       -0.0032502872
 H         -6.9807910007       -1.5965888556        0.0294534814
 H         -5.2485461371       -2.2009022660        0.0211132100
 H         -6.1876433089        0.7158817391        0.0149077907
 H         -4.2367538744        2.4273612864        0.0048154413
 H         -1.6390362333        2.5255704114       -0.0088378691
 H         -0.2065858871       -2.0946660437       -0.0304733853
 H          2.3847637750       -2.0117439623       -0.0252299566
 H          3.7712537155        1.6815157999        0.0048569326
  24
        -45.67088211
 C         -6.5305638700        0.1588779463       -0.0050087681
 C         -5.4154672817       -0.5685549169       -0.0042091225
 C         -4.0793943968       -0.0380936444        0.0007072093
 C         -3.6440239233        1.2658806663        0.0069776432
 C         -2.2520180421        1.3904840522        0.0091719142
 C         -1.5946003886        0.1815018824        0.0046460921
 C         -0.1917333197       -0.0585438388        0.0037581570
 C          0.4658719655       -1.2675016450        0.0021776703
 C          1.8584239234       -1.1466188274        0.0002737175
 C          2.2898441737        0.1585167945        0.0002561940
 C          3.6178818116        0.6984277009       -0.0023081907
 C          4.7488439584        0.0002693443       -0.0039234273
 F          4.8679207982       -1.3229614069       -0.0030011720
 F          5.9575659965        0.5549278068       -0.0067926808
 S          0.9413867886        1.2595249583        0.0030646006
 S         -2.7294891658       -1.1353573068       -0.0020388606
 H         -7.5000307233       -0.3065785724       -0.0090599207
 H         -6.5140735504        1.2347869311       -0.0017031634
 H         -5.4780050504       -1.6490478323       -0.0078277942
 H         -4.3111910171        2.1083253188        0.0098399058
 H         -1.7291395925        2.3309310474        0.0137715691
 H         -0.0567883150       -2.2075794149        0.0023393941
 H          2.5264180432       -1.9879929890       -0.0012411278
 H          3.7165009074        1.7732437831       -0.0033254015
  24
        -45.67044927
 C         -6.3059054723        0.7567167270        0.0372000893
 C         -5.3358189706       -0.1547085869        0.0078109976
 C         -3.9273895622        0.1329006051        0.0075308179
 C         -3.2694488793        1.3397101518        0.0346939000
 C         -1.8771732333        1.2180518849        0.0255414867
 C         -1.4422269078       -0.0870848056       -0.0088875735
 C         -0.1029672610       -0.5686032729       -0.0248585674
 C          0.3303880725       -1.8741849228       -0.0659914850
 C          1.7222661230       -1.9927012029       -0.0685613352
 C          2.3746382572       -0.7823010098       -0.0296153178
 C          3.7939294600       -0.5923760860       -0.0210911949
 C          4.4315313112        0.5731727056        0.0210300024
 F          3.8742422506        1.7777382297        0.0626586388
 F          5.7564552545        0.6914405353        0.0283822481
 S          1.2403064167        0.5355015050        0.0109409457
 S         -2.7911305216       -1.1838548516       -0.0312247512
 H         -7.3420741242        0.4686474590        0.0364471896
 H         -6.1007687171        1.8126544762        0.0632637552
 H         -5.5871959327       -1.2071761293       -0.0181174121
 H         -3.7782272420        2.2859116053        0.0604418269
 H         -1.1971269068        2.0516723647        0.0432261527
 H         -0.3477408722       -2.7085258103       -0.0927485299
 H          2.2424554038       -2.9334144469       -0.0977165097
 H          4.4059378648       -1.4812471648       -0.0503744495
  24
        -45.67001374
 C         -5.6120940766       -1.6254025779        0.1357872910
 C         -5.3701147103       -0.3207209505        0.0365647375
 C         -4.0639731006        0.2732696437       -0.0100809756
 C         -3.7654135844        1.6113369522       -0.1105380803
 C         -2.3940823344        1.8822279838       -0.1331338812
 C         -1.6166762391        0.7485653107       -0.0499922389
 C         -0.1938504536        0.6602917789       -0.0466278901
 C          0.7189856452        1.6899902373       -0.1245557196
 C          2.0485354820        1.2612404978       -0.0967190471
 C          2.1772954907       -0.1042016412        0.0029816409
 C          3.3517500307       -0.9244292521        0.0593518425
 C          4.6098355188       -0.4975756111        0.0227271121
 F          5.0209625633        0.7625026096       -0.0723641939
 F          5.6649131821       -1.3054213414        0.0784395323
 S          0.6174014381       -0.8708058794        0.0636051199
 S         -2.6091638409       -0.6750698936        0.0581613860
 H         -6.6141711651       -2.0141874395        0.1665218789
 H         -4.8092259078       -2.3423414210        0.1890950985
 H         -6.1883680924        0.3864852398       -0.0160246361
 H         -4.5227421662        2.3734396823       -0.1661599411
 H         -1.9839218817        2.8727739919       -0.2079015504
 H          0.4317424838        2.7226496259       -0.1994353251
 H          2.8875990554        1.9303359606       -0.1480273153
 H          3.2082519515       -1.9912098714        0.1388751449
  24
        -45.66872220
 C         -6.4531851335        0.5626480347        0.0774654228
 C         -5.2114506972        1.0350590438        0.1633797208
 C         -4.0142269506        0.2510933659        0.0273856700
 C         -3.8583573719       -1.0938784035       -0.2130012903
 C         -2.5231446633       -1.4998846819       -0.2803580029
 C         -1.6276377607       -0.4694668963       -0.0919906825
 C         -0.2036383494       -0.5341275484       -0.0972190914
 C          0.5931182417       -1.6425076470       -0.2877376011
 C          1.9610623136       -1.3632368438       -0.2324946228
 C          2.2360633696       -0.0363198620        0.0011060871
 C          3.4918894116        0.6437814727        0.1260568566
 C          4.6967118726        0.0897747528        0.0376186974
 F          4.9696530146       -1.1920755091       -0.1819864223
 F          5.8325927221        0.7702704844        0.1618524824
 S          0.7677432327        0.8827828905        0.1552487791
 S         -2.4665118486        1.0283078241        0.1726371272
 H         -7.3050359372        1.2093538261        0.1899359181
 H         -6.6602711208       -0.4771149968       -0.1065263044
 H         -5.0486174499        2.0886225950        0.3502319896
 H         -4.6856190738       -1.7685786525       -0.3375443726
 H         -2.2192388963       -2.5148541612       -0.4612871833
 H          0.1964894693       -2.6258416926       -0.4615281428
 H          2.7232990917       -2.1096601197       -0.3596736278
 H          3.4640457913        1.7070151088        0.3097414634
  24
        -45.66804617
 C         -6.1283432497       -0.9644279012        0.0359417007
 C         -4.8303271057       -1.2598450553        0.0560632019
 C         -3.7600399369       -0.3010068841        0.0148469352
 C         -3.8032019657        1.0721494631       -0.0488443585
 C         -2.5412278727        1.6710354357       -0.0721886696
 C         -1.5040926762        0.7643854592       -0.0269868593
 C         -0.1039568590        1.0321379948       -0.0351560524
 C          0.5212582475        2.2596788274       -0.0760653007
 C          1.9146574056        2.1678075007       -0.0730385251
 C          2.3787721677        0.8731797379       -0.0302520798
 C          3.7541084877        0.4746182002       -0.0183326650
 C          4.2111226258       -0.7729903761        0.0204297749
 F          3.4812579778       -1.8812216489        0.0556945945
 F          5.5040680860       -1.0863236725        0.0291187163
 S          1.0597431178       -0.2575112836        0.0078311604
 S         -2.1147170570       -0.8597614908        0.0459858112
 H         -6.8766628122       -1.7360746764        0.0697845855
 H         -6.4855854845        0.0493487823       -0.0147092753
 H         -4.5149534307       -2.2938955916        0.1072109615
 H         -4.7207728916        1.6310459517       -0.0779159746
 H         -2.3889286962        2.7339197587       -0.1215444315
 H         -0.0130820940        3.1912637365       -0.1063471418
 H          2.5697138838        3.0202852462       -0.1012840973
 H          4.4916849152        1.2625504971       -0.0438196175
