25
 energy: -33.037804430407 gnorm: 0.000051755073 xtb: 6.4.1 (23d549d)
C        -4.15094360980000   -0.08940710950000   -0.11360998880000
C        -3.04772693980000    0.64688787900000   -0.03468398440000
C        -1.67496733120000    0.16747166630000   -0.00843271660000
C        -1.33136189770000   -1.18549892840000   -0.03231812250000
C        -0.01470960000000   -1.58570309390000   -0.00399751310000
C         1.02905960290000   -0.65619831300000    0.04583091510000
N         2.34008414060000   -1.05282614950000   -0.02860958720000
C         2.76367122540000   -2.41515367190000    0.16940353930000
C         0.70155092310000    0.71767314070000    0.09011642170000
C         1.73844127490000    1.74285044950000    0.20574555450000
C         1.68721423720000    2.94265682210000   -0.35710159860000
C        -0.63403971580000    1.09145335530000    0.05697050280000
H        -5.12714084120000    0.36448211170000   -0.12800408110000
H        -4.13238171410000   -1.16433154160000   -0.16813022860000
H        -3.14510375940000    1.72547490920000    0.01402806650000
H        -2.10351944740000   -1.93824222940000   -0.06919633030000
H         0.21110181090000   -2.64013935120000   -0.02434122370000
H         3.02060933730000   -0.34716528330000    0.20057498220000
H         2.35692017970000   -3.05275815850000   -0.61790167130000
H         2.44931213390000   -2.81714989120000    1.14076320010000
H         3.84928328940000   -2.45581826670000    0.11084665460000
H         2.59701136890000    1.49422153190000    0.82188803080000
H         0.87118452750000    3.23691543660000   -0.99500584240000
H         2.46675297890000    3.67124982860000   -0.21225099400000
H        -0.87216324330000    2.14440022290000    0.11072848480000
