  20
        -39.12632252
 C         -3.2782991307        2.6288821896        0.0382343943
 C         -2.0036410673        2.2638690825       -0.0248553102
 C         -1.4887348372        0.8988483132       -0.0154079198
 C         -2.3237166026       -0.2190514870       -0.0104752078
 C         -1.7574139325       -1.4770865471       -0.0011148293
 F         -2.5698253961       -2.5547515480        0.0023995187
 C         -0.3918438881       -1.6782807295        0.0038377289
 C          0.4549433647       -0.5681418591       -0.0019318931
 C          1.8892464243       -0.8132403503        0.0029294669
 C          2.8770520144        0.0697494907        0.0033469253
 F          2.7914360325        1.3935036661       -0.0010173852
 F          4.1607408005       -0.2782041293        0.0085863485
 C         -0.1075772338        0.7064936748       -0.0129579573
 H         -3.5611761382        3.6671946930        0.0267535062
 H         -4.0878892551        1.9229445287        0.1063772871
 H         -1.2401840529        3.0290993934       -0.0846577515
 H         -3.3967016547       -0.1251515656       -0.0174278844
 H          0.0007199067       -2.6826286269        0.0109684642
 H          2.2003619840       -1.8478150143        0.0074844414
 H          0.5299361441        1.5754490566       -0.0181930175
