  26
        -46.99838681
 C         -3.0869858000       -2.0159831194       -0.8491288800
 C         -1.9544078744       -2.1018225924       -0.1619783071
 C         -0.9894406714       -1.0124383358       -0.0135785616
 C          0.3679657179       -1.3233677203       -0.0035355947
 C          1.3503548446       -0.3437389760        0.0176995861
 C          2.7601661517       -0.8327042462        0.1382705254
 O          3.1747277695       -1.7844067485       -0.4603709737
 O          3.5283652308       -0.1921350872        1.0392156052
 C          0.9887329194        1.0126775163       -0.0291568892
 C          1.9498293778        2.1035109544       -0.1912690202
 C          3.0637451465        2.0249927674       -0.9090815640
 C         -0.3678461603        1.3232661211        0.0210083067
 C         -1.3495083127        0.3433226646        0.0580064818
 C         -2.7553469671        0.8310174958        0.2222477963
 O         -3.1847446459        1.7909009368       -0.3524625871
 O         -3.5000942362        0.1788968919        1.1344698325
 H         -3.7392341758       -2.8639360609       -0.9654527095
 H         -3.3972977529       -1.1046921632       -1.3339712496
 H         -1.6471380268       -3.0497545438        0.2615656103
 H          0.6808559605       -2.3570923741       -0.0226865237
 H          3.0928859355        0.5865823850        1.4115256409
 H          1.6541735239        3.0468840176        0.2503620219
 H          3.3607858636        1.1189941813       -1.4117797033
 H          3.7130547002        2.8740658362       -1.0333936550
 H         -0.6810733753        2.3570684014        0.0217143898
 H         -3.0557697133       -0.6051296469        1.4845285054
