  27
        -32.82123734
 C         -3.7133617936        0.7839470594       -0.4314930919
 C         -2.7371410385       -0.3002817156       -0.8727359409
 C         -2.3418370325       -1.2440000807        0.2629134501
 C         -1.3791077955       -0.6091526207        1.2750964746
 C         -0.0543548056       -0.2916117166        0.6526729792
 C          0.8653405001       -1.3094715337        0.2747349251
 C          2.0038430156       -0.8456121388       -0.2948603617
 C          3.1716555522       -1.6114685217       -0.8063340565
 S          1.9793159788        0.8891665763       -0.3820153382
 C          0.4080099508        0.9559785134        0.3635380477
 C         -0.2328710039        2.2820780054        0.5916666095
 H         -3.9727865210        1.4246688718       -1.2714962847
 H         -3.2838064520        1.4059396721        0.3493307791
 H         -4.6284226950        0.3373007459       -0.0474272867
 H         -1.8361744932        0.1578620489       -1.2859366372
 H         -3.2029196935       -0.8864352884       -1.6686347084
 H         -1.8621115843       -2.1275766438       -0.1638010858
 H         -3.2422178530       -1.5736896374        0.7867873205
 H         -1.2211325829       -1.3170015051        2.0935946149
 H         -1.8241478141        0.2931758753        1.6935213888
 H          0.6739549585       -2.3567350571        0.4338882151
 H          3.0075104755       -2.6768466295       -0.6618467284
 H          4.0824591771       -1.3216399985       -0.2824627294
 H          3.3232934297       -1.4199737255       -1.8686113829
 H          0.5069138222        3.0743730307        0.5050600698
 H         -0.6780544013        2.3292961266        1.5849596672
 H         -1.0173441812        2.4671264457       -0.1434912086
