  19
        -35.16497575
 C         -0.3852904027       -2.8753156159        0.5327590391
 C         -1.3156264887       -2.1666344825       -0.0935627167
 C         -1.4026177868       -0.7095309554       -0.1096378854
 C         -2.6644043978       -0.1155506686       -0.0133799098
 N         -2.8768746847        1.1821018092        0.0457212230
 C         -1.8249362118        1.9841760520        0.0001567534
 C         -0.5267185938        1.5245355327       -0.1284840411
 C         -0.2920556743        0.1500653528       -0.1914884661
 C          1.0444289521       -0.3851146805       -0.4222007438
 C          2.1870746480        0.1813097167       -0.0690107326
 F          2.3508504383        1.3084888057        0.6120162016
 F          3.3800953245       -0.3451884981       -0.3320638365
 H         -0.4046875467       -3.9517408841        0.5317200083
 H          0.4079529994       -2.4130192278        1.0962411514
 H         -2.1319009250       -2.6750323401       -0.5918673728
 H         -3.5504968215       -0.7362902209        0.0320809302
 H         -2.0392670642        3.0428139261        0.0532871389
 H          0.2884952894        2.2254841049       -0.2021924723
 H          1.1152436291       -1.3333308756       -0.9345711918
