  45
        -66.73560687
 C          5.5258543921       -2.9025912723       -0.5124278098
 O          4.3485232951       -3.1499884164        0.2138523714
 C          3.3266697841       -2.2478128389        0.1208306852
 C          2.1806882129       -2.5462177210        0.8597031616
 C          1.0929588916       -1.7033459569        0.8430925679
 C          1.1108022301       -0.5363381300        0.0762972153
 N          0.0026172267        0.3190226306        0.0513657995
 C          0.1860830149        1.7042539777        0.0121384669
 C          1.2416451791        2.3022327855        0.7002562799
 C          1.4212982094        3.6697671386        0.6524245869
 C          0.5578072952        4.4852212419       -0.0696815611
 C          0.7448151634        5.9722132592       -0.0932006219
 C         -0.4952330377        3.8850768956       -0.7489876235
 C         -0.6808877604        2.5174997328       -0.7169438651
 C         -1.2899832016       -0.2188930515        0.0615397678
 C         -2.3175982531        0.4056952989        0.7715513520
 C         -3.5869435717       -0.1258869272        0.7775540030
 C         -3.8710239863       -1.3044199335        0.0857413321
 O         -5.1611648358       -1.7468639265        0.1649125439
 C         -5.5039008831       -2.9301746479       -0.5111920355
 C         -2.8507074023       -1.9337091588       -0.6172283824
 C         -1.5784830799       -1.3904856156       -0.6313955712
 C          2.2529340463       -0.2453173381       -0.6632991271
 C          3.3523832724       -1.0847046180       -0.6392855699
 H          6.1904717897       -3.7361677112       -0.2902689073
 H          6.0034905187       -1.9676109737       -0.2006674876
 H          5.3356761486       -2.8704706477       -1.5905650545
 H          2.1727281700       -3.4483508040        1.4506373745
 H          0.2164011734       -1.9416187506        1.4267912425
 H          1.9179116017        1.6856800626        1.2741352680
 H          2.2445775298        4.1143680283        1.1936328979
 H          1.8003596854        6.2309436241       -0.0448642629
 H          0.2485293763        6.4261263501        0.7656942956
 H          0.3166867567        6.4028445382       -0.9954765864
 H         -1.1771509854        4.4975393651       -1.3218692794
 H         -1.4988685794        2.0683259163       -1.2608551661
 H         -2.1099600584        1.3123154890        1.3199455040
 H         -4.3842204969        0.3519548538        1.3244461662
 H         -6.5617149621       -3.0905042416       -0.3080238796
 H         -4.9315188285       -3.7871228871       -0.1402907631
 H         -5.3547309187       -2.8351277131       -1.5920612842
 H         -3.0309074865       -2.8441521730       -1.1668352545
 H         -0.7959796971       -1.8846662793       -1.1881318150
 H          2.2817261841        0.6509558887       -1.2653181878
 H          4.2179567232       -0.8209301988       -1.2264037638
