30
 energy: -75.097560422657 gnorm: 0.000021301881 xtb: 6.4.1 (23d549d)
C         5.92530444190000    0.64677538830000    0.45141647490000
C         5.04371705620000   -0.12449008640000   -0.17626295360000
C         3.59044480600000   -0.05083918470000   -0.09039880680000
C         2.86532278340000    0.98294914480000    0.51271477540000
F         3.49376144900000    2.02012377190000    1.07814327810000
C         1.47747776170000    0.98089139950000    0.54411058230000
F         0.83733528550000    1.98191981400000    1.15787040640000
C         0.73668279560000   -0.05428964180000   -0.02004110670000
C        -0.73662901260000   -0.05439968360000    0.01993336910000
C        -1.47757470360000    0.98073936300000   -0.54409111980000
F        -0.83756762170000    1.98195409830000   -1.15768526280000
C        -2.86541991890000    0.98256897210000   -0.51283546490000
F        -3.49382198360000    2.01960114880000   -1.07856431390000
C        -3.59050335720000   -0.05145790980000    0.08996743850000
C        -5.04373278890000   -0.12584107830000    0.17544903560000
C        -5.92578604930000    0.64945410860000   -0.44663623710000
C        -2.82968244430000   -1.08165133730000    0.66039803320000
F        -3.45755343620000   -2.09913910800000    1.26441724290000
C        -1.44447339010000   -1.09051887270000    0.62513739510000
F        -0.77361235210000   -2.08952989290000    1.20758006520000
C         1.44462209550000   -1.09015510380000   -0.62558589110000
F         0.77384542550000   -2.08912922890000   -1.20818784410000
C         2.82982525730000   -1.08099125440000   -0.66108461600000
F         3.45793431020000   -2.09814435850000   -1.26541729180000
H         6.98019735400000    0.48797815090000    0.30775105210000
H         5.65263619100000    1.44253665210000    1.12029909580000
H         5.40039405080000   -0.91798560890000   -0.81916653860000
H        -5.40015147100000   -0.92344550380000    0.81339002730000
H        -5.65374319520000    1.44996686210000   -1.11005094240000
H        -6.98056269770000    0.48932402350000   -0.30357825660000
