  46
        -81.57776084
 C         -1.0246241075        0.4803573133        3.3188538772
 O         -0.3112387471       -0.3374357361        2.4045699201
 C         -1.0459092612       -1.2373742840        1.7299869344
 C         -0.2116585180       -2.0627904865        0.8163511193
 C          0.7972009813       -1.5225110841        0.0059168871
 N          1.0074460770       -0.1422955103       -0.0841300732
 C         -0.0660401148        0.7354576500       -0.1425993467
 C         -1.2694528729        0.3383652086       -0.7316331279
 C         -2.3402088108        1.2129212257       -0.7615256655
 C         -3.6319789742        0.8071661653       -1.4095563426
 F         -3.6884226136       -0.4879299023       -1.7396302108
 F         -4.6973870985        1.0556410096       -0.6299389124
 F         -3.8507799520        1.4929320304       -2.5541301058
 C         -2.2430202728        2.4935798617       -0.2306542879
 C         -1.0437834150        2.8893989387        0.3375283644
 C          0.0322553034        2.0259756251        0.3849609072
 C          2.3285312464        0.3381004664       -0.1215586826
 C          2.6866209779        1.3730717566       -0.9807268810
 C          3.9898491304        1.8309153640       -1.0104876998
 C          4.9676834274        1.2685484917       -0.1995890085
 C          6.3857690501        1.7483119800       -0.2500975954
 C          4.6021131862        0.2302125546        0.6503069531
 C          3.3017278275       -0.2304600464        0.6963766424
 C          1.5839455555       -2.3895796922       -0.7525850619
 C          1.3621265619       -3.7520737765       -0.7245224169
 C          0.3329659242       -4.2791569931        0.0410286023
 C         -0.4505092743       -3.4329099168        0.8019515292
 O         -2.2279118167       -1.3875123579        1.9009578975
 H         -0.2837834219        1.1096249734        3.8048076583
 H         -1.5469913470       -0.1376702324        4.0518891123
 H         -1.7572256929        1.0906680901        2.7864198604
 H         -1.3661378340       -0.6468205864       -1.1615049084
 H         -3.0913718117        3.1584390425       -0.2631393706
 H         -0.9526300574        3.8788014727        0.7588740373
 H          0.9565071426        2.3361876308        0.8479438442
 H          1.9408700620        1.8141189870       -1.6257985092
 H          4.2518920261        2.6347763780       -1.6831322143
 H          6.4457183230        2.7410071794       -0.6890350427
 H          6.9879210547        1.0713409963       -0.8569474206
 H          6.8195857658        1.7759934030        0.7472961427
 H          5.3469121852       -0.2182468022        1.2917922246
 H          3.0276328330       -1.0299695302        1.3684798770
 H          2.3653689205       -1.9769581730       -1.3734618878
 H          1.9826116642       -4.4044965939       -1.3203476024
 H          0.1451949920       -5.3413349652        0.0449157045
 H         -1.2524365568       -3.8188844101        1.4127055937
