  39
        -45.47778377
 C         -6.3680535614       -0.6283833930        0.9216151713
 C         -5.3816601747       -0.2132418442       -0.1634674701
 C         -4.9344878703        1.2363318672        0.0106998923
 C         -4.0532911238        1.7473002950       -1.1303285199
 C         -2.7348847328        0.9944488960       -1.3177336397
 C         -1.8206163783        1.0552852080       -0.0963343241
 C         -0.4550481444        0.4365070114       -0.3813915550
 C          0.4518327755        0.4613637421        0.8539488401
 C          1.7887926427       -0.1382307799        0.5482983588
 C          2.0330735338       -1.5381560487        0.5776684097
 C          3.2975753380       -1.8861877033        0.2344575796
 C          3.9047388756       -3.2417960743        0.1588759722
 S          4.2382523266       -0.4753885289       -0.1434600212
 C          2.8874131257        0.5724026475        0.1713188901
 C          3.0361453241        2.0473612645        0.0207787270
 H         -6.6729695788       -1.6638927788        0.7879988643
 H         -7.2573796905       -0.0023392656        0.8904700339
 H         -5.9157282742       -0.5284437148        1.9062337319
 H         -5.8494626645       -0.3306341695       -1.1438458867
 H         -4.5146810294       -0.8746828735       -0.1262597021
 H         -4.4068746830        1.3409690936        0.9603888089
 H         -5.8229494836        1.8713838594        0.0629581387
 H         -3.8304894204        2.8019235062       -0.9481723506
 H         -4.6196386653        1.6880833777       -2.0634386772
 H         -2.2108259983        1.4353178389       -2.1700520126
 H         -2.9369119014       -0.0484327925       -1.5679575572
 H         -2.2818097640        0.5228723044        0.7373040523
 H         -1.6893116331        2.0975853137        0.2052476463
 H          0.0317211952        0.9805076863       -1.1942694209
 H         -0.5835547700       -0.5974852695       -0.7098381328
 H         -0.0224414426       -0.1060990810        1.6581253638
 H          0.5737416794        1.4923238484        1.1913772812
 H          1.2801613739       -2.2565019840        0.8528137606
 H          3.1651122535       -3.9936059014        0.4245164790
 H          4.7506483303       -3.3243731650        0.8412626942
 H          4.2681626675       -3.4462470379       -0.8481437570
 H          4.0524446331        2.2949162501       -0.2746580274
 H          2.8155119122        2.5539458043        0.9611129375
 H          2.3517069426        2.4295894967       -0.7368156810
