  20
        -38.94868751
 C         -1.5671766822        3.8778482288        0.0954864846
 C         -0.5620602916        3.0251014891       -0.0594857070
 C         -0.6473217135        1.5683250691       -0.0353201340
 C         -1.8666991837        0.8901298627       -0.0264529200
 C         -1.8802516201       -0.4918834314        0.0008503469
 Cl        -3.3969458937       -1.3253503653        0.0094381844
 C         -0.7079902777       -1.2251315536        0.0196661409
 C          0.5211144977       -0.5622625748        0.0059405200
 C          1.7266275700       -1.3772808583        0.0233960663
 C          2.9905240773       -0.9806095479        0.0004044220
 F          3.4582674900        0.2599008527       -0.0451579710
 F          4.0169420487       -1.8264314897        0.0201079927
 C          0.5349742052        0.8301384160       -0.0244884394
 H         -1.4047780176        4.9414096757        0.0674084171
 H         -2.5824572594        3.5620101785        0.2628125805
 H          0.4383447731        3.4121045887       -0.2065679134
 H         -2.7983844955        1.4304461934       -0.0487870818
 H         -0.7470054105       -2.3027531497        0.0413376999
 H          1.5834571160       -2.4475078237        0.0589687870
 H          1.4727795831        1.3612531636       -0.0349440666
