  23
        -29.60693573
 C          3.8714301848        0.3466176880        0.0747317341
 C          2.6621121104        0.8743076847       -0.0718153960
 C          1.3898333191        0.1633849571       -0.0435175683
 C          1.2907572835       -1.2238969810        0.0611075691
 C          0.0540345566       -1.8367602908        0.0786160797
 C         -1.1239618649       -1.1072251230       -0.0066822227
 C         -2.4472701008       -1.8101367682        0.0328346437
 C         -1.0436365884        0.2891215159       -0.1099524537
 C         -2.2563626876        1.1022032062       -0.2107801422
 C         -2.3905622453        2.3250028017        0.2835711596
 C          0.2076832753        0.8947732852       -0.1303137414
 H          4.7569579990        0.9579648739        0.0396257759
 H          4.0335865518       -0.7053467353        0.2355708146
 H          2.5739435567        1.9436209439       -0.2243022035
 H          2.1815435185       -1.8292164962        0.1230945059
 H         -0.0004198047       -2.9136616053        0.1608303866
 H         -2.3095315015       -2.8722849135        0.2205520449
 H         -2.9711553167       -1.6973902244       -0.9168895600
 H         -3.0806075311       -1.3972806075        0.8167898259
 H         -3.0917820230        0.6436348898       -0.7235097479
 H         -1.6009257964        2.8116107992        0.8315388220
 H         -3.3057047222        2.8820456500        0.1747535132
 H          0.2632055534        1.9690457402       -0.2351587898
  23
        -29.60692832
 C          3.2676066815        1.5601981656        0.0886429741
 C          2.8433783714        0.3096393996       -0.0478903001
 C          1.4614871018       -0.1539893446       -0.0273580963
 C          1.2038832084       -1.5211663772       -0.1323780081
 C         -0.0914115149       -1.9987136819       -0.1106014535
 C         -1.1759831260       -1.1425961388        0.0146252907
 C         -2.5708428923       -1.6912287632        0.0173641400
 C         -0.9358920011        0.2362108981        0.1154688156
 C         -2.0486171530        1.1775641149        0.2540061649
 C         -2.0686368150        2.4032263484       -0.2505797602
 C          0.3724250039        0.7047313194        0.0955027830
 H          4.3164677572        1.8014323322        0.0595268051
 H          2.5992055080        2.3910306317        0.2363253076
 H          3.5754365980       -0.4770489207       -0.1886668526
 H          2.0283223865       -2.2136936207       -0.2285662599
 H         -0.2661292573       -3.0625125092       -0.1944370029
 H         -2.5606016869       -2.7603825296       -0.1806501519
 H         -3.1796704564       -1.2021854905       -0.7417479291
 H         -3.0459846923       -1.5287749506        0.9853684643
 H         -2.9072993119        0.8170835948        0.8052014597
 H         -1.2537451502        2.7945473755       -0.8366095274
 H         -2.9118121352        3.0586836934       -0.1125012600
 H          0.5384488582        1.7656541879        0.1965233620
  23
        -29.60502326
 C          3.9803191243        0.1404975631       -0.1179337388
 C          2.8198955981        0.7647385776        0.0440866005
 C          1.4942244730        0.1593721952        0.0322986975
 C          1.2780392467       -1.2126213591       -0.1041252511
 C         -0.0037478351       -1.7194842717       -0.0894799210
 C         -1.1219111838       -0.9007933344        0.0344598835
 C         -2.4790649184       -1.5351372186        0.0767842012
 C         -0.9239583528        0.4803607625        0.1514299205
 C         -2.0111603379        1.4569689183        0.2719032288
 C         -3.1372914603        1.4660330694       -0.4260904428
 C          0.3770442923        0.9769507718        0.1714819971
 H          4.9129659221        0.6778635850       -0.0950857307
 H          4.0541934973       -0.9209084910       -0.2812894346
 H          2.8209180190        1.8373385474        0.1992211894
 H          2.1134500988       -1.8873196942       -0.2070655058
 H         -0.1498189110       -2.7876360823       -0.1749212922
 H         -2.4140776857       -2.5274313105        0.5194001336
 H         -2.8796630257       -1.6486488660       -0.9309373917
 H         -3.1765079613       -0.9335730494        0.6546641839
 H         -1.8143805801        2.2644542467        0.9681267357
 H         -3.3605534144        0.7219016648       -1.1704923936
 H         -3.8716957104        2.2436066498       -0.2969798534
 H          0.5191532558        2.0441172298        0.2813033295
