  39
        -45.47643682
 C         -5.5502789040        0.4401748211        1.5447699890
 C         -4.9886289290       -0.2663598499        0.3167015441
 C         -4.8838907703        0.6438445022       -0.9079214921
 C         -3.9535607728        1.8478744263       -0.7418618412
 C         -2.5091265395        1.5002940549       -0.3783931240
 C         -1.8171120096        0.6373901675       -1.4317750154
 C         -0.3144564968        0.4923027779       -1.1946659347
 C          0.0191165575       -0.2826653214        0.0853163299
 C          1.4926031817       -0.5256641668        0.1935872486
 C          2.1075438834       -1.7283828129       -0.2508271433
 C          3.4541956207       -1.7514265185       -0.1001692427
 C          4.4137329624       -2.8333387790       -0.4473458170
 S          4.0156019040       -0.2650857259        0.6026863536
 C          2.3965971929        0.3681444255        0.6815454941
 C          2.1704778973        1.7387683236        1.2166534141
 H         -5.6972138961       -0.2707499062        2.3550860271
 H         -6.5093764465        0.8992259971        1.3139274612
 H         -4.8732021147        1.2152612260        1.8943445651
 H         -5.6435741183       -1.1034920420        0.0613574137
 H         -4.0085367795       -0.6834907764        0.5537750362
 H         -5.8820975426        1.0189142823       -1.1492046567
 H         -4.5487898544        0.0472766470       -1.7587956847
 H         -4.3570798511        2.5094818744        0.0272895299
 H         -3.9541111102        2.4069363860       -1.6815015925
 H         -2.4907001175        0.9935922998        0.5867942100
 H         -1.9515072390        2.4346396509       -0.2688863972
 H         -1.9716248765        1.0917499950       -2.4139610499
 H         -2.2691058019       -0.3560068847       -1.4507956162
 H          0.1461489036        1.4812233249       -1.1444479953
 H          0.1285362757       -0.0348775956       -2.0434514640
 H         -0.5002453575       -1.2432659865        0.0684752720
 H         -0.3282937144        0.2773318476        0.9550726502
 H          1.5490872560       -2.5495119126       -0.6662420251
 H          3.8782571488       -3.6814028604       -0.8679523121
 H          4.9581017384       -3.1644603369        0.4369417728
 H          5.1443380441       -2.4822237917       -1.1760049251
 H          2.9070645447        1.9749536441        1.9818715266
 H          1.1744281138        1.8199933731        1.6474519113
 H          2.2597697660        2.4828238106        0.4232107764
