25
 energy: -40.160855945604 gnorm: 0.000074640407 xtb: 6.4.1 (23d549d)
C        -3.95964184810000   -1.62394824870000    0.43902700960000
C        -3.57342219120000   -0.39093088560000    0.13236974460000
C        -2.20006069980000    0.07960186970000    0.04561969560000
C        -1.93767019940000    1.43044816570000   -0.21919642870000
N        -0.73782047880000    1.95597902160000   -0.26195863950000
C         0.33993077450000    1.18993370510000   -0.08758975590000
C         1.62271112800000    1.87923140540000   -0.06398138750000
C         1.75705856400000    3.15241081910000   -0.41966221810000
C         0.20023972840000   -0.19960732920000    0.10594500290000
C         1.31434226180000   -1.17392652910000    0.22839384000000
O         1.24554536520000   -2.18438291520000    0.88470686940000
O         2.38929495690000   -0.84966813660000   -0.50333228340000
C         3.46842273070000   -1.77143666880000   -0.46102331430000
C        -1.08037002500000   -0.73393894840000    0.19720400670000
H        -5.00206054200000   -1.88805509130000    0.48380990430000
H        -3.26199264150000   -2.41322632020000    0.66052737300000
H        -4.32049204240000    0.36624914410000   -0.07239995900000
H        -2.75306592590000    2.12360370690000   -0.39079271040000
H         2.47527408580000    1.30444733360000    0.26271074150000
H         0.90622931940000    3.71918121290000   -0.75611961040000
H         2.70870035650000    3.65398475380000   -0.38479171850000
H         4.23723470280000   -1.36778484960000   -1.11470532590000
H         3.14228693350000   -2.75303215860000   -0.81098503380000
H         3.84319294490000   -1.87166748810000    0.55998677480000
H        -1.17640231930000   -1.79450531910000    0.37540865600000
