  25
        -39.38631121
 C          3.6949508623        1.3553077804        0.0053952185
 O          2.2906932881        1.1679745043        0.0138742244
 C          1.8747227566       -0.1032295235       -0.0034938732
 O          2.6389511378       -1.0408797943       -0.0199040630
 C          0.3920401931       -0.1969708940        0.0013859172
 N         -0.2472104666        0.9725883379        0.0116996220
 C         -1.5667140769        1.0055137861        0.0091543264
 N         -2.1406671051        2.2486306439       -0.0596289686
 C         -2.3510239484       -0.1707275860        0.0067818074
 C         -3.8459265432       -0.1004136861       -0.0015798444
 C         -1.6718327041       -1.3696411867        0.0079213603
 C         -0.2754189189       -1.4240751422        0.0029124568
 C          0.4269821917       -2.7408971742       -0.0007769673
 H          3.8591749829        2.4294891479        0.0328953035
 H          4.1328712096        0.9237247720       -0.8979166497
 H          4.1505101228        0.8748508105        0.8747539102
 H         -1.4947205150        3.0053445550        0.0988157446
 H         -3.0606720990        2.3640331953        0.3299351367
 H         -4.1929465461        0.4806481568       -0.8553883850
 H         -4.2154544513        0.3777188148        0.9070067026
 H         -4.2733482082       -1.0981751235       -0.0603574827
 H         -2.2324503442       -2.2952124446        0.0083744911
 H         -0.2926902984       -3.5568794137        0.0068733479
 H          1.0787017117       -2.8277409439        0.8664471777
 H          1.0624238095       -2.8300855162       -0.8797533631
