  23
        -38.06262702
 C         -4.4074917602        0.3595772528        0.6452437535
 C         -3.3546165886        0.7410815545       -0.0625561410
 C         -2.0856503776        0.0063690731       -0.1153945950
 C         -2.1093959003       -1.3856415714       -0.1728647221
 C         -0.9374057387       -2.1102029424       -0.2658913961
 C          0.2752775029       -1.4515850842       -0.3197791628
 C          0.3255238239       -0.0599458157       -0.2599908240
 C          1.6076408691        0.6365399972       -0.3634914147
 C          2.7756938698        0.1897836935        0.0657907229
 F          3.0211220285       -0.9432126393        0.7141270686
 F          3.9191471072        0.8603933071       -0.0808705925
 C         -0.8589849133        0.6791553690       -0.1382731861
 C         -0.8057308526        2.1726194125        0.0141320355
 H         -5.3282112284        0.9177511273        0.6389229789
 H         -4.3839573734       -0.5150522977        1.2740010120
 H         -3.4098454966        1.6390976790       -0.6643216859
 H         -3.0612166515       -1.8949640624       -0.1652879210
 H         -0.9680043135       -3.1882776318       -0.3128725152
 H          1.1871877686       -2.0171920485       -0.4261676251
 H          1.6230393634        1.6032421979       -0.8431387019
 H          0.0489100122        2.4675950419        0.6184060527
 H         -1.7036157886        2.5423869013        0.5006849294
 H         -0.7192399773        2.6550254285       -0.9607929032
