  23
        -38.06676464
 C         -4.7691821403        0.0740335136        0.1672518401
 C         -3.7439731056       -0.7504428517       -0.0148418939
 C         -2.3326124187       -0.3941095258       -0.0591002881
 C         -1.3818331638       -1.4051346006       -0.2070686310
 C         -0.0368608399       -1.1109242036       -0.2501317177
 C          0.4163958132        0.2054365742       -0.1491521153
 C          1.8351543398        0.5272199932       -0.2108391180
 C          2.8555232691       -0.2808631197        0.0332479686
 F          2.8235641171       -1.5530858685        0.4140194585
 F          4.1286306222        0.1076550410       -0.0584512793
 C         -0.5281265653        1.2371701294       -0.0065278142
 C         -0.1050957562        2.6712855259        0.1152095111
 C         -1.8735423822        0.9196044997        0.0373406897
 H         -5.7819680747       -0.2901744299        0.1860759882
 H         -4.6498807802        1.1347435095        0.3065410153
 H         -3.9411059557       -1.8080890850       -0.1427660684
 H         -1.7050390653       -2.4327230025       -0.2900872610
 H          0.6716589867       -1.9132643804       -0.3784786991
 H          2.1099724607        1.5363343871       -0.4767151120
 H          0.3831727870        3.0096246380       -0.7986729856
 H          0.5908030306        2.8021586933        0.9423601509
 H         -0.9691018714        3.3070509577        0.2905519590
 H         -2.5875029408        1.7214443614        0.1489706079
