  20
        -39.10712754
 C          2.7156332977       -2.6269325052       -0.1528319138
 C          2.5121818057       -1.3315434837        0.0516134762
 C          1.2229795516       -0.6483893578        0.0242436099
 C          0.0011420085       -1.3139793902       -0.0040036835
 C         -1.2216616354       -0.6502838400       -0.0296767868
 C         -2.5093636023       -1.3363509153       -0.0593733648
 C         -2.7111761720       -2.6288927922        0.1634664837
 C         -1.1985759366        0.7480165566       -0.0351612317
 F         -2.3488813923        1.4405360196       -0.0648164116
 C         -0.0013182955        1.4482312063        0.0006615561
 F         -0.0023867411        2.7886934549        0.0029095066
 C          1.1971584860        0.7499006393        0.0340741864
 F          2.3460242152        1.4447152302        0.0659780294
 H          3.7067793645       -3.0436861453       -0.1162358009
 H          1.9204547688       -3.3185620487       -0.3719788894
 H          3.3592104668       -0.6869788662        0.2440079202
 H          0.0017013577       -2.3903265546       -0.0069603446
 H         -3.3560340130       -0.6965659514       -0.2687617898
 H         -1.9159875427       -3.3139772504        0.4020888887
 H         -3.7006913542       -3.0492503677        0.1243724449
