  22
        -42.56017506
 C          4.5353764210       -0.3867585208        0.0557120799
 C          3.3546690557       -0.9947602879        0.0731601019
 C          2.0891984712       -0.2793542861        0.0018853989
 C          0.8757480679       -0.9747365529        0.0215584823
 C         -0.3086293814       -0.2613252006       -0.0371466430
 C         -1.6207139668       -0.9984986572        0.0086304956
 F         -1.4714468881       -2.3135607483        0.2202512548
 F         -2.4319981836       -0.5529552468        0.9841800343
 F         -2.3160640345       -0.8851694613       -1.1401903422
 C         -0.2834515120        1.1383748429       -0.1178363420
 C         -1.4925220122        1.9485814953       -0.1871924093
 C         -1.5869259513        3.1844032543        0.2876996984
 C          0.9932830653        1.7182010100       -0.1457274718
 N          2.1186334699        1.0510904860       -0.0849470821
 H          5.4594127667       -0.9354836758        0.1101092749
 H          4.5938103266        0.6856604124       -0.0146015738
 H          3.2796067823       -2.0714765132        0.1428977548
 H          0.8648971617       -2.0515649671        0.0886012117
 H         -2.3549043037        1.4881332588       -0.6488636383
 H         -0.7689595278        3.6720941656        0.7905434025
 H         -2.5030004964        3.7430706042        0.2098765545
 H          1.0939402808        2.7908796472       -0.2411542950
  22
        -42.55947131
 C          3.8652508218       -1.7555298960        0.1387037982
 C          3.5139782202       -0.4795332491        0.0308176411
 C          2.1553583275        0.0407230122       -0.0253639229
 C          1.0106283708       -0.7618995287        0.0073255206
 C         -0.2329922122       -0.1581461418       -0.0419909345
 C         -1.4714706967       -1.0129959220        0.0169650444
 F         -1.1998637749       -2.3083238489        0.2300858035
 F         -2.3117351017       -0.6413803524        0.9986551461
 F         -2.1838675577       -0.9677994732       -1.1259005601
 C         -0.3396297716        1.2380585392       -0.1265291667
 C         -1.6193310564        1.9320898389       -0.1864453221
 C         -1.8230606275        3.1555137105        0.2862021067
 C          0.8770935857        1.9324931878       -0.1688779146
 N          2.0586427415        1.3682237369       -0.1170206062
 H          4.9010492913       -2.0456506795        0.1734433763
 H          3.1499328944       -2.5582552226        0.1975673162
 H          4.2669880179        0.2945103931       -0.0224175172
 H          1.0893449618       -1.8343114795        0.0754966695
 H         -2.4395875331        1.3921499039       -0.6386005883
 H         -1.0487200053        3.7183101371        0.7795663567
 H         -2.7875251447        3.6269118549        0.2159272972
 H          0.8799914778        3.0093525301       -0.2686814984
  22
        -42.55715736
 C          3.7947735752       -1.8367355249        0.4356629278
 C          3.5242092215       -0.5780517622        0.1109299334
 C          2.2005600301        0.0115106751       -0.0337174558
 C          1.0082005832       -0.7020104473        0.1096600341
 C         -0.2016931015       -0.0412676892       -0.0370411394
 C         -1.4657237412       -0.8563614033        0.0654997777
 F         -1.2404429988       -2.1625545098       -0.1562904413
 F         -2.0294297918       -0.7908053495        1.2879566724
 F         -2.4106183810       -0.4942278643       -0.8135397732
 C         -0.2174666603        1.3317333137       -0.3116727508
 C         -1.4088141772        2.1685903351       -0.4393969323
 C         -2.4407240526        2.1750489710        0.3916929308
 C          1.0408575545        1.9290838450       -0.4757565672
 N          2.1870891798        1.3105003649       -0.3394130810
 H          4.8103547529       -2.1822103046        0.5219852682
 H          3.0304990443       -2.5703638885        0.6288592320
 H          4.3240877043        0.1262820343       -0.0713468113
 H          1.0222194959       -1.7600362923        0.3133250059
 H         -1.3677776642        2.8791864618       -1.2554303935
 H         -2.5034661456        1.5265441116        1.2482591990
 H         -3.2640582251        2.8531043932        0.2491311280
 H          1.1036274042        2.9818088404       -0.7201483023
