  16
        -33.90044548
 C          4.3362205994       -0.5511237340        0.0001862510
 C          3.1014525635       -1.0358305436       -0.0002956778
 C          1.9170467608       -0.2021309988       -0.0001319771
 C          0.5667200236       -0.6437463974       -0.0002526772
 C         -0.1621647052        0.5190522032       -0.0001053054
 C         -1.5711961533        0.8120750562       -0.0002650187
 C         -2.5307422381       -0.1036020561        0.0000053208
 F         -2.3574301188       -1.4167827723        0.0005709499
 F         -3.8244110656        0.1768254794       -0.0002122289
 O          0.6897369584        1.5649910004        0.0001601367
 N          1.9563764399        1.1135977602        0.0001503262
 H          5.1979118916       -1.1958378385        0.0000571522
 H          4.5076917370        0.5112213493        0.0007105885
 H          2.9110368573       -2.1004805708       -0.0008717634
 H          0.2061074679       -1.6500059901       -0.0004273416
 H         -1.8523508228        1.8528963747       -0.0006238357
