48
 energy: -55.802929001552 gnorm: 0.000033266071 xtb: 6.4.1 (23d549d)
C         4.77093654620000    0.00095939980000    1.50373167090000
C         3.58712885190000    0.59943906710000    1.50526500580000
C         2.46378200040000    0.27135787350000    0.64694559510000
C         1.15839475980000    0.39720822400000    1.04525309450000
N         0.30957194990000   -0.09014506840000    0.08786031640000
Si       -1.46120300350000   -0.00929572420000    0.10282878720000
C        -1.96177160090000    0.43642908600000    1.90510819670000
C        -3.44981749800000    0.76153532400000    2.01986619960000
C        -1.60678128810000   -0.66539237680000    2.90384654310000
C        -1.93300880540000    1.42460478500000   -1.09627669880000
C        -1.41317144970000    2.76678154880000   -0.57749853970000
C        -1.40860579100000    1.19980800570000   -2.51435079780000
C        -2.26918456320000   -1.69822310990000   -0.36427393880000
C        -3.64019083930000   -1.49952586990000   -1.01375882270000
C        -1.41602443690000   -2.60560191270000   -1.24828656300000
C         1.09772119330000   -0.51499257540000   -0.94691373530000
C         2.42359863120000   -0.31057992150000   -0.66530986530000
C         3.48306826040000   -0.56731912350000   -1.62316661090000
C         4.62336446220000    0.10293468460000   -1.72442864290000
H         5.54336195770000    0.27924424310000    2.20084758600000
H         5.00886327570000   -0.78702675150000    0.81028418560000
H         3.37473941300000    1.36392518110000    2.24458044670000
H         0.78296905720000    0.78963489140000    1.96805869550000
H        -1.41451979970000    1.33728293360000    2.19880507580000
H        -4.05130926190000   -0.11605026630000    1.79599682540000
H        -3.73337050920000    1.55648879300000    1.33514310850000
H        -3.69178922250000    1.08216139580000    3.03234342030000
H        -2.21409857160000   -1.55034479550000    2.72920600860000
H        -1.79461838140000   -0.32889066500000    3.92268993670000
H        -0.56119949910000   -0.95135535340000    2.82508057640000
H        -3.02393978870000    1.48954404030000   -1.15533509470000
H        -0.33025905710000    2.74082239320000   -0.47619741450000
H        -1.84260534630000    3.00739266420000    0.39138602990000
H        -1.66953494970000    3.56643085220000   -1.27081931430000
H        -0.32128749940000    1.19645221510000   -2.51931621750000
H        -1.74650141450000    1.99754785000000   -3.17449958070000
H        -1.75849718680000    0.25441673660000   -2.92138994100000
H        -2.43390875560000   -2.24280178670000    0.57162692520000
H        -3.54309417180000   -1.01180032460000   -1.98020670170000
H        -4.28804965080000   -0.88945678690000   -0.39058131290000
H        -4.12619142990000   -2.46163458060000   -1.17018293360000
H        -1.26227256930000   -2.16073902770000   -2.22867271130000
H        -1.91597838420000   -3.56278558360000   -1.39317251120000
H        -0.44730632370000   -2.79383315560000   -0.79351338750000
H         0.66541275910000   -0.91198034900000   -1.84182057820000
H         3.25180489770000   -1.34220124530000   -2.34589130390000
H         4.87482153570000    0.90279312450000   -1.04959564280000
H         5.34488482750000   -0.12628056100000   -2.49053564790000
