25
 energy: -44.389299393794 gnorm: 0.000101791478 xtb: 6.4.1 (23d549d)
C         2.25162508730000   -3.44211329120000   -0.07222446150000
C         1.02538862440000   -2.94602967010000   -0.19486095100000
C         0.59716603280000   -1.55857166170000   -0.08097756060000
C        -0.76188488470000   -1.27289280270000   -0.14299025340000
C        -1.28317259510000    0.01530461640000   -0.03926620090000
C        -2.74079644720000    0.25269267260000   -0.01343267050000
O        -3.25555310870000    1.34155675890000   -0.14973006020000
O        -3.53764181360000   -0.80585972250000    0.21109571510000
C        -0.39354890680000    1.11766834730000    0.06450506110000
N        -0.85399509840000    2.37841275530000    0.11914078540000
C         0.99866146350000    0.85629926440000    0.12790288770000
C         1.99832793540000    1.92377326930000    0.25171417830000
C         2.00815046090000    3.05925506470000   -0.43358938090000
C         1.44352248270000   -0.45370554190000    0.08488965630000
F         2.77662375750000   -0.64095720960000    0.16589961600000
H         2.42454929350000   -4.49964379440000   -0.17917848080000
H         3.11787472470000   -2.84178394080000    0.13489248820000
H         0.21001498700000   -3.63086330070000   -0.39958458000000
H        -1.42315715340000   -2.11478013840000   -0.30689535880000
H        -3.04425994940000   -1.61856680700000    0.38044321210000
H        -1.85773786960000    2.50939559490000    0.11653418760000
H        -0.22994774450000    3.11925529790000    0.38763456970000
H         2.81068018400000    1.70515530240000    0.93395239330000
H         1.26925108300000    3.29091455060000   -1.18284568660000
H         2.79420612240000    3.78265813800000   -0.29920236340000
