  35
        -51.28495679
 C          4.6023728801        2.3359719473        0.1320083786
 C          3.2299787851        1.7309147416        0.0992516312
 C          3.0553605649        0.3602189057        0.0385445889
 C          1.7684472692       -0.1613115147        0.0025763368
 C          1.2483805150       -1.4989838883       -0.0386476232
 C          1.8415607298       -2.7536591672       -0.0866156665
 C          1.0293554168       -3.8682975229       -0.1430096364
 C         -0.3579793043       -3.7426499003       -0.1675910031
 C         -0.9716837202       -2.5057230066       -0.1206460559
 C         -0.1611378557       -1.3823479876       -0.0385910235
 N         -0.5087871681       -0.0468711055       -0.0049671157
 C         -1.8139766750        0.4625469664        0.0018407757
 C         -2.7501892345       -0.0217154462        0.9112422898
 C         -4.0382683389        0.4802482734        0.9098280980
 C         -4.4009741552        1.4725954576        0.0143281171
 C         -3.4692598373        1.9598833419       -0.8871727306
 C         -2.1818663645        1.4564163599       -0.9008795908
 C          0.6517896122        0.7028791760        0.0183557482
 C          0.8206644432        2.0774010001        0.1045558540
 C          2.1099480116        2.5685174192        0.1393026295
 H          5.3675646531        1.5639355742        0.1306417610
 H          4.7281830737        2.9486111002        1.0240748808
 H          4.7558838665        2.9771814387       -0.7356566846
 H          3.9083652226       -0.3023262100        0.0237683919
 H          2.9169572476       -2.8497461509       -0.0842732683
 H          1.4705695083       -4.8533848176       -0.1783996303
 H         -0.9677622314       -4.6321821243       -0.2285227991
 H         -2.0472031904       -2.4186680717       -0.1589937943
 H         -2.4575008397       -0.7789965128        1.6231677517
 H         -4.7601698630        0.1004732205        1.6177694381
 H         -5.4066678254        1.8650590593        0.0190453422
 H         -3.7487581436        2.7306961889       -1.5902292907
 H         -1.4591991853        1.8176345427       -1.6172889003
 H         -0.0265575670        2.7447687085        0.1552927878
 H          2.2642638920        3.6362502291        0.2035170924
