26
 energy: -48.713920208860 gnorm: 0.000114031138 xtb: 6.5.0 (unknown)
C            0.75811528080000       -4.19507271950000        0.06671225420000
C            1.38470786910000       -3.12535781510000       -0.40309876650000
C            0.88126805190000       -1.75573445060000       -0.28958836370000
C           -0.46488614920000       -1.51191305150000       -0.41407612960000
C           -1.01378277220000       -0.21563837590000       -0.34712327810000
C           -2.45840083260000       -0.05687468120000       -0.48551199120000
C           -3.21213967260000        0.82872440380000        0.14682118150000
F           -2.83220848360000        1.70853779520000        1.05669569460000
F           -4.53001035870000        0.91286742960000       -0.02223624290000
C           -0.14350166340000        0.83921353650000       -0.19098779360000
F           -0.60988083070000        2.10403538770000       -0.21568172170000
C            1.24828298380000        0.65823074090000       -0.04958838900000
C            2.11596177900000        1.75536249390000        0.13313227070000
C            3.45772313580000        1.55693333300000        0.29763344640000
C            3.97971250430000        0.25637981880000        0.29260285510000
C            3.15925663480000       -0.82379108250000        0.10953997980000
C            1.77244014120000       -0.66165188920000       -0.08298714850000
H            1.16043886720000       -5.18568255300000       -0.05754062740000
H           -0.16831268820000       -4.12121899700000        0.61124364980000
H            2.32907478150000       -3.24353901670000       -0.91707579980000
H           -1.13890622270000       -2.33781555570000       -0.58366033120000
H           -2.96910729010000       -0.74538654800000       -1.14180831250000
H            1.69567562260000        2.74952791090000        0.14898141630000
H            4.11971672360000        2.39773789190000        0.43972285730000
H            5.03979124460000        0.11007084910000        0.43837208620000
H            3.57776311140000       -1.81793049740000        0.12531636670000
