24
 energy: -38.040934278549 gnorm: 0.000030445387 xtb: 6.4.1 (23d549d)
C         2.48390496280000    3.02253826120000    0.00016417180000
C         2.57236508620000    1.69658882220000    0.00082369490000
C         1.44816077540000    0.78803130330000   -0.00032470030000
C         0.08277520510000    1.12510812050000   -0.00067993050000
C        -0.63805252950000   -0.05440905470000   -0.00119340090000
C        -2.06420247790000   -0.33116929190000   -0.00065518640000
O        -2.53120050720000   -1.45090535880000   -0.00069718840000
O        -2.80925689620000    0.78697738790000    0.00017044730000
C        -4.21382085880000    0.58751028500000    0.00190913330000
N         0.25087358370000   -1.08941150880000   -0.00115187840000
C         1.51993881880000   -0.61732446320000   -0.00059876040000
C         2.68031203830000   -1.46621769470000   -0.00020150680000
C         2.66904606370000   -2.79827997350000    0.00186604430000
H         3.36216137590000    3.64447328060000    0.00138376780000
H         1.53709407780000    3.53374632440000   -0.00168034860000
H         3.55027209360000    1.23349245100000    0.00259773310000
H        -0.34220542870000    2.10751083950000   -0.00055091070000
H        -4.66108850890000    1.57801832580000   -0.00196904160000
H        -4.51834811490000    0.03229179690000    0.89187189810000
H        -4.51956523550000    0.02457987970000   -0.88275724500000
H        -0.03402980110000   -2.05566703570000   -0.00177591920000
H         3.62807509150000   -0.94683358140000   -0.00151352630000
H         1.76006046360000   -3.37599814820000    0.00361918830000
H         3.58426854960000   -3.36315510750000    0.00192098830000
