  44
        -69.18144139
 C          4.6512474006       -4.3872755099       -0.1647191825
 C          3.6797875495       -3.2479174643       -0.1076611201
 C          2.4757232483       -3.2893242222       -0.7981903441
 C          1.5894377054       -2.2305235618       -0.7538070468
 C          1.8857821708       -1.0970763829       -0.0006292123
 N          0.9932936315       -0.0156077581        0.0497888751
 C         -0.3761221879       -0.2341391324        0.1176103704
 C         -0.8912382381       -1.3544111360        0.7772132001
 C         -2.2493726388       -1.5640760598        0.8405378527
 C         -3.1530163234       -0.6708473542        0.2560943662
 C         -4.5706438721       -0.9551439806        0.3664113250
 C         -5.5953263744       -0.2490659353       -0.0906619618
 F         -5.5690825709        0.8969286421       -0.7653875049
 F         -6.8673452697       -0.6184225635        0.0777325539
 C         -2.6334979069        0.4475483723       -0.4024183206
 C         -1.2752695150        0.6604271369       -0.4713143243
 C          1.5058149068        1.2906538949        0.0283291530
 C          2.5942169489        1.6085484793       -0.7802268105
 C          3.1056216478        2.8917458725       -0.7878625795
 C          2.5482113555        3.8920576069       -0.0020511227
 C          3.0861668731        5.2902444996       -0.0256120720
 C          1.4607688082        3.5677357656        0.8020471592
 C          0.9461173578        2.2876878506        0.8257448375
 C          3.0925822333       -1.0487904388        0.6955114263
 C          3.9730705353       -2.1093167110        0.6355716565
 H          4.2058774676       -5.2550988854       -0.6444030220
 H          4.9733495206       -4.6667261697        0.8370970207
 H          5.5376635651       -4.0990400373       -0.7300328919
 H          2.2282752179       -4.1599220123       -1.3886590046
 H          0.6622353079       -2.2751480558       -1.3063059482
 H         -0.2139647540       -2.0522765378        1.2466995940
 H         -2.6257344291       -2.4323756122        1.3617462811
 H         -4.8403799046       -1.8605497129        0.8913476684
 H         -3.2941000996        1.1553107857       -0.8754946261
 H         -0.8942858898        1.5245602809       -0.9948999683
 H          3.0360440580        0.8436412938       -1.4019498852
 H          3.9498370120        3.1197924408       -1.4227229910
 H          4.0755303121        5.3192307253       -0.4751899740
 H          3.1446569441        5.6974610328        0.9820009640
 H          2.4275938518        5.9356238895       -0.6077217207
 H          1.0166705539        4.3292357456        1.4270648776
 H          0.1090764665        2.0498676577        1.4658357276
 H          3.3317856265       -0.1749091327        1.2836778953
 H          4.9035470025       -2.0580505793        1.1827462937
