  24
        -38.03758076
 C          2.9535910411        2.5531607944        0.2579005641
 C          2.7409355884        1.3123423368       -0.1631247326
 C          1.4707187385        0.6219406049       -0.0720607462
 C          0.2014284446        1.2231166691       -0.0138005626
 C         -0.7454581348        0.2146848473       -0.0279963035
 C         -2.1927084932        0.3066628706        0.0146683117
 O         -2.8349017827        1.3266504515        0.0790321287
 O         -2.7651909421       -0.9253645964       -0.0258033965
 C         -4.1825546148       -0.9380742795        0.0116670825
 N         -0.0803476797       -0.9760177665       -0.0973900403
 C          1.2604623637       -0.7648328450       -0.1127471672
 C          2.1719951783       -1.8803969551       -0.1484654697
 C          3.4413808506       -1.8701045217        0.2492619404
 H          3.9104723766        3.0325280336        0.1437070968
 H          2.1831587996        3.1286914058        0.7416466065
 H          3.5422881925        0.7546160933       -0.6301840270
 H         -0.0141268499        2.2716691794        0.0094191600
 H         -4.4790217391       -1.9836891419       -0.0160518287
 H         -4.5899130914       -0.4005384714       -0.8471650325
 H         -4.5424862774       -0.4606533822        0.9254192059
 H         -0.5368374826       -1.8738428594       -0.1001679135
 H          1.7377644266       -2.8044692855       -0.5145060523
 H          3.9025352874       -0.9948958970        0.6704031232
 H          4.0530679716       -2.7530575235        0.1819225295
