  24
        -32.50895559
 C          3.1731492966       -0.6364431869       -0.0252544094
 C          1.6908385075       -0.4255359794       -0.0099131328
 C          0.8083455815       -1.5045085690       -0.0159216737
 C         -0.5583332372       -1.3151513607        0.0014960983
 C         -1.5243666342       -2.4597333629        0.0030885869
 C         -1.0046168452        0.0195599734        0.0206403775
 N         -2.3444635404        0.3215748998        0.0938621878
 N         -2.7703366931        1.6533538403       -0.0972290463
 N         -0.1739893549        1.0557678411        0.0225779823
 C          1.1381738282        0.8520837775        0.0121095045
 C          1.9919881319        2.0820512866        0.0205372546
 H          3.4079484647       -1.6981101504       -0.0423360001
 H          3.6341113389       -0.1933033175        0.8574510227
 H          3.6199774908       -0.1679716508       -0.9021830943
 H          1.2036615899       -2.5119733286       -0.0328961309
 H         -0.9884094908       -3.4052409154        0.0366756270
 H         -2.1420086032       -2.4485343122       -0.8966071421
 H         -2.1849138844       -2.4016632939        0.8677191434
 H         -2.9867315094       -0.3475529663       -0.3076705093
 H         -2.1577666445        2.1076722242       -0.7781485431
 H         -2.6366408951        2.1531883987        0.7811498372
 H          1.3575019896        2.9632545210        0.0395821551
 H          2.6238045965        2.1142953086       -0.8661239709
 H          2.6403561353        2.0890754130        0.8955849207
