  25
        -44.38958961
 C          2.2442722050       -3.4505008567        0.0663129917
 C          1.0147049786       -2.9588120828       -0.0394257924
 C          0.5945978306       -1.5646821543       -0.0102053189
 C         -0.7658866386       -1.2768237704       -0.0509124794
 C         -1.2767932139        0.0167277918        0.0063964775
 C         -2.7368744803        0.2551733163       -0.0094611586
 O         -3.2638209854        1.2665690626        0.3965870389
 O         -3.5111442817       -0.7189966399       -0.5156183985
 C         -0.3870713899        1.1152281278        0.1218670851
 N         -0.8531841153        2.3749712851        0.2271508393
 C          1.0058349812        0.8571725763        0.0976144409
 C          2.0096982129        1.9250672179        0.1549491218
 C          1.9616826591        3.0692086628       -0.5145870019
 C          1.4476797292       -0.4554209748        0.0532399980
 F          2.7833770745       -0.6417942353        0.0566585107
 H          2.4105400919       -4.5139250098        0.0319575908
 H          3.1198537365       -2.8405607827        0.1889742804
 H          0.1896112507       -3.6528581007       -0.1541360087
 H         -1.4403853566       -2.1236228942       -0.0751895289
 H         -2.9973426273       -1.4495657218       -0.8836885876
 H         -1.8424518004        2.4805681116        0.4126438357
 H         -0.2122206767        3.1040140966        0.4896475664
 H          2.8746507143        1.7012968189        0.7670013769
 H          1.1633486168        3.3086647002       -1.1974081801
 H          2.7544312206        3.7933239501       -0.4347665401
