25
 energy: -44.389589605126 gnorm: 0.000079373132 xtb: 6.4.1 (23d549d)
C         2.24427220500000   -3.45050085670000    0.06631299170000
C         1.01470497860000   -2.95881208280000   -0.03942579240000
C         0.59459783060000   -1.56468215430000   -0.01020531890000
C        -0.76588663860000   -1.27682377040000   -0.05091247940000
C        -1.27679321390000    0.01672779180000    0.00639647750000
C        -2.73687448030000    0.25517331630000   -0.00946115860000
O        -3.26382098540000    1.26656906260000    0.39658703890000
O        -3.51114428170000   -0.71899663990000   -0.51561839850000
C        -0.38707138990000    1.11522812780000    0.12186708510000
N        -0.85318411530000    2.37497128510000    0.22715083930000
C         1.00583498120000    0.85717257630000    0.09761444090000
C         2.00969821290000    1.92506721790000    0.15494912180000
C         1.96168265910000    3.06920866280000   -0.51458700190000
C         1.44767972920000   -0.45542097480000    0.05323999800000
F         2.78337707450000   -0.64179423530000    0.05665851070000
H         2.41054009190000   -4.51392500980000    0.03195759080000
H         3.11985373650000   -2.84056078270000    0.18897428040000
H         0.18961125070000   -3.65285810070000   -0.15413600870000
H        -1.44038535660000   -2.12362289420000   -0.07518952890000
H        -2.99734262730000   -1.44956572180000   -0.88368858760000
H        -1.84245180040000    2.48056811160000    0.41264383570000
H        -0.21222067670000    3.10401409660000    0.48964756640000
H         2.87465071430000    1.70129681890000    0.76700137690000
H         1.16334861680000    3.30866470020000   -1.19740818010000
H         2.75443122060000    3.79332395010000   -0.43476654010000
