  18
        -26.18359841
 C          3.0056631848       -0.3881823978       -0.0077779445
 C          1.5384354268       -0.0999562007       -0.0010216249
 C          0.5890270442       -1.1359010407        0.0010610906
 C         -0.7456862135       -0.8115021017        0.0056775479
 C         -1.8336911475       -1.8377535657       -0.0001242906
 C         -1.0397990511        0.5761796167        0.0119240272
 N         -2.3262657506        1.0370308461       -0.0546107629
 N         -0.0866875776        1.4980810291        0.0146858278
 N          1.1716997824        1.1648365675        0.0037382549
 H          3.2806474497       -0.9751324151        0.8674738968
 H          3.5563057584        0.5474715544       -0.0006867288
 H          3.2747179594       -0.9572464380       -0.8965728496
 H          0.9099658710       -2.1686060077       -0.0035193258
 H         -1.4108571068       -2.8379782772       -0.0550360816
 H         -2.4914768206       -1.6857926117       -0.8553724017
 H         -2.4341396109       -1.7666844225        0.9081230411
 H         -3.0574936173        0.4566092817        0.3193118019
 H         -2.4195920230        2.0274909952        0.1031058908
