  18
        -23.79124150
 C          2.4449276443       -0.2154939337        0.0000510256
 N          1.0571261620        0.1509892663       -0.0000128187
 C         -0.0536758627       -0.6279356116        0.0000003934
 C         -0.0602742478       -2.1161757031       -0.0000412918
 C         -1.1379322710        0.2354637479        0.0000062135
 C         -2.5877328113       -0.1094394738        0.0000429532
 C         -0.5663125202        1.5157795376       -0.0000279417
 N          0.7497935624        1.4479940646       -0.0000261617
 H          2.5571032884       -1.2963058292        0.0007208917
 H          2.9325165785        0.1981605925        0.8846295014
 H          2.9323856096        0.1970603654       -0.8851204084
 H          0.9441511048       -2.5294701149       -0.0003603200
 H         -0.5827917964       -2.4877844428       -0.8814624427
 H         -0.5822818793       -2.4878612420        0.8816524446
 H         -2.7265443992       -1.1876474369        0.0004766708
 H         -3.0777384796        0.3046661687       -0.8808872915
 H         -3.0778557861        0.3053978025        0.8805605275
 H         -1.0605958714        2.4669007500       -0.0000414861
