  26
        -40.95964545
 C         -4.0566168650        2.0544854933       -0.3663906362
 C         -3.4593420437        0.9882587123        0.1481893984
 C         -2.0261911111        0.7079703226        0.0409397750
 C         -1.1089779942        1.7581602694        0.0837580891
 C          0.2512700747        1.5206412812        0.0319910400
 C          0.6955896739        0.2158059458       -0.0622309980
 S          2.4558528523       -0.1148229715       -0.0810274417
 C          2.8728286365       -0.1888796149        1.6891353657
 O          2.6857383984       -1.4157470660       -0.6489063824
 O          3.1436467154        1.0100347247       -0.6543913946
 C         -0.1855417185       -0.8411770289       -0.1150509033
 C         -1.5599984241       -0.6169541609       -0.0668525938
 C         -2.4942701088       -1.7372534904       -0.1784097726
 C         -2.2543143208       -2.9649804316        0.2621224483
 H         -5.1141626564        2.2193333621       -0.2516083587
 H         -3.5187449986        2.7906897375       -0.9399833465
 H         -4.0424607783        0.2557043191        0.6905509305
 H         -1.4740098698        2.7693864861        0.1793469569
 H          0.9717537858        2.3228607716        0.0489522371
 H          2.3014221878       -0.9925754265        2.1344655414
 H          2.6252081888        0.7664401555        2.1327845014
 H          3.9346794678       -0.3840248486        1.7713234078
 H          0.2126790804       -1.8363572835       -0.2344974000
 H         -3.4366193768       -1.5159992275       -0.6615308881
 H         -1.3400744975       -3.2247494881        0.7686415156
 H         -2.9739765309       -3.7564868334        0.1430495604
