  24
        -42.11506028
 C         -3.9375517311       -0.9089715785        0.1149486287
 C         -3.0849612047        0.1020421700       -0.0002886049
 C         -1.6311380071        0.0093731801        0.0058042395
 C         -0.9235797859       -1.1901320588        0.0486997380
 C          0.4601958931       -1.2506195886        0.0559123720
 C          1.1759283440       -2.5225086883        0.1101728793
 C          0.6862033348       -3.7046079454       -0.2409748139
 C          1.2195980184       -0.0554393090        0.0327189435
 O          2.5627825255       -0.2055499660        0.0458177091
 C          3.4177659974        0.9193054657        0.0513021504
 C          0.5205029315        1.1493539671       -0.0159840343
 F          1.1556276074        2.3469719752       -0.0504007193
 C         -0.8674319754        1.1745051379       -0.0320561468
 F         -1.4706853523        2.3774505465       -0.0776395729
 H         -5.0002764916       -0.7416590586        0.1008421151
 H         -3.6220803519       -1.9314034388        0.2312352143
 H         -3.4704816147        1.1075892545       -0.1042274884
 H         -1.4744963613       -2.1141328422        0.0901995032
 H          2.1987238000       -2.4473517432        0.4505841354
 H         -0.3109885935       -3.8314602422       -0.6268618889
 H          1.2815130863       -4.5980281966       -0.1679101611
 H          4.4258616017        0.5086061850        0.0861051499
 H          3.2531948814        1.5493085293        0.9285708179
 H          3.3032523794        1.5189234133       -0.8545877953
  24
        -42.11413768
 C         -4.0000643964        0.5470520012       -0.0288781202
 C         -3.0714653534       -0.3988241904        0.0569131615
 C         -1.6235473394       -0.2364557884        0.0401823599
 C         -0.8171631892       -1.3753377136        0.0734931820
 C          0.5670597464       -1.3383719867        0.0608050095
 C          1.3755133772       -2.5533105450        0.1055894054
 C          0.9668873771       -3.7716555011       -0.2250847952
 C          1.2318703327       -0.0894163426        0.0268226908
 O          2.5827352859       -0.1334985039        0.0166373633
 C          3.3465614134        1.0549612351        0.0004625663
 C          0.4373975288        1.0544431021       -0.0050922668
 F          0.9767652955        2.2984241591       -0.0413972261
 C         -0.9507781547        0.9829177097       -0.0006873252
 F         -1.6107802635        2.1546770758       -0.0283587078
 H         -5.0455492777        0.2897857624       -0.0065928494
 H         -3.7742197800        1.5931378014       -0.1242131270
 H         -3.3846668096       -1.4319983480        0.1459026687
 H         -1.3024385131       -2.3372067654        0.1252530253
 H          2.3976404909       -2.3993290027        0.4206166676
 H         -0.0273492951       -3.9761629960       -0.5842483792
 H          1.6289234566       -4.6175269962       -0.1605363796
 H          4.3843729097        0.7247311769        0.0094355058
 H          3.1553482836        1.6718209006        0.8816569824
 H          3.1622176688        1.6420278365       -0.9021316371
  24
        -42.11304587
 C         -4.0995023471       -0.6923754853        0.1185900988
 C         -3.1810342422        0.2653219040        0.0791326793
 C         -1.7371898482        0.0763542526        0.0474318338
 C         -1.1055169661       -1.1635962469        0.0924550122
 C          0.2728629813       -1.3292115952        0.0562697359
 C          0.7803879213       -2.6978737634        0.1031609716
 C          1.9804378721       -3.1432471069       -0.2478180321
 C          1.1092844836       -0.1876938348       -0.0066178757
 O          2.4425906236       -0.3967355658       -0.0033053294
 C          3.3508824763        0.6788469353        0.1251386949
 C          0.4838571049        1.0596346426       -0.0525664849
 F          1.1963378132        2.2111204758       -0.1304821820
 C         -0.8974587736        1.1852365006       -0.0289649909
 F         -1.4154452261        2.4269315737       -0.0803627459
 H         -5.1483000087       -0.4533211801        0.1398305426
 H         -3.8540030560       -1.7402199286        0.1296741024
 H         -3.4980608748        1.2996872854        0.0656433252
 H         -1.7170461935       -2.0495570031        0.1534275492
 H          0.0424824864       -3.4148573518        0.4433414173
 H          2.7551675995       -2.5005342956       -0.6202564922
 H          2.2162650078       -4.1920261682       -0.1767664127
 H          4.3305358578        0.2114867821        0.2175566303
 H          3.1502911124        1.2746398373        1.0183923527
 H          3.3419267113        1.3262291249       -0.7547982482
  24
        -42.11222130
 C         -4.0619989002        0.7618253304        0.0255180136
 C         -3.1990548176       -0.2454981978       -0.0444877437
 C         -1.7439404362       -0.1784150457       -0.0285699004
 C         -1.0109228162       -1.3639019053       -0.0791059346
 C          0.3758249314       -1.4322072121       -0.0623593731
 C          0.9794181951       -2.7604755770       -0.1128349230
 C          2.2220280988       -3.1136547788        0.1924334740
 C          1.1224428388       -0.2303588751       -0.0132941763
 O          2.4679574426       -0.3335378138       -0.0304898895
 C          3.2884550792        0.8110167538       -0.1535958750
 C          0.3987643011        0.9617738733        0.0358004485
 F          1.0198882046        2.1663401046        0.0977698879
 C         -0.9899146908        0.9908786636        0.0319062871
 F         -1.5655369711        2.2053843600        0.0845232047
 H         -5.1224308392        0.5754383977        0.0049655525
 H         -3.7658192107        1.7915473465        0.1053413790
 H         -3.5801668349       -1.2566312186       -0.1206062689
 H         -1.5608131630       -2.2926149470       -0.1264145199
 H          0.2826005132       -3.5334611327       -0.4148578282
 H          2.9632232509       -2.4120397116        0.5242683323
 H          2.5293572176       -4.1438990082        0.1232532701
 H          4.3021295763        0.4228587360       -0.2458817335
 H          3.2270273904        1.4523441879        0.7286276757
 H          3.0427824651        1.3923177181       -1.0450975176
  24
        -42.10778225
 C         -3.8667059829       -1.0503264062       -0.0600870570
 C         -3.0885815117        0.0250746123       -0.0336152794
 C         -1.6328311142        0.0380258312        0.0182147926
 C         -0.8453661464       -1.1059721238        0.0867084100
 C          0.5443596960       -1.0860931160        0.1498231480
 C          1.2422712084       -2.3697287010        0.3149522392
 C          0.9274042137       -3.4756388736       -0.3429807433
 C          1.2094704494        0.1506119045        0.1131239011
 O          2.5443855929        0.3848900317        0.1255143958
 C          3.4674323177       -0.5824409391       -0.3247805741
 C          0.4251963782        1.3112060560        0.0526986036
 F          1.0463160595        2.5042382184        0.0232173123
 C         -0.9544555852        1.2606064346        0.0159086399
 F         -1.6434113471        2.4153554738       -0.0371979076
 H         -4.9379167547       -0.9576675690       -0.0984803989
 H         -3.4802736774       -2.0548161247       -0.0445927144
 H         -3.5445729016        1.0059078125       -0.0540188187
 H         -1.3301020545       -2.0675209682        0.1292899251
 H          2.0267572214       -2.3906843397        1.0585435051
 H          0.1617523417       -3.4881677066       -1.1007686789
 H          1.4385007917       -4.4052176624       -0.1619411950
 H          4.2833103776       -0.0223300783       -0.7846226871
 H          3.0267437037       -1.2547783073       -1.0626841798
 H          3.8690215577       -1.1626048972        0.5099601576
  24
        -42.10691353
 C         -4.0426018375        0.3930684576        0.1240841717
 C         -3.0493299668       -0.4834196327        0.0253705399
 C         -1.6187661264       -0.2118498265       -0.0228225719
 C         -0.7348307790       -1.2860118638       -0.0972126078
 C          0.6494689180       -1.1645945252       -0.1593238712
 C          1.4425313168       -2.3902576490       -0.3318274473
 C          1.2103866450       -3.5229583916        0.3148527355
 C          1.2141366903        0.1198754917       -0.1147614589
 O          2.5254242101        0.4625314656       -0.1208014104
 C          3.5227790090       -0.4337653954        0.3173995237
 C          0.3359368208        1.2099806755       -0.0502025960
 F          0.8582699674        2.4497475492       -0.0151899175
 C         -1.0381323087        1.0596171140       -0.0148344297
 F         -1.7830857985        2.1775033833        0.0381180969
 H         -5.0657472958        0.0581339556        0.1512882530
 H         -3.8924425353        1.4554271948        0.1811747051
 H         -3.2868657691       -1.5392920996       -0.0247494371
 H         -1.1491026281       -2.2820662290       -0.1423243151
 H          2.2288877672       -2.3452457969       -1.0724019229
 H          0.4453819303       -3.6012533429        1.0692769030
 H          1.7913449590       -4.4091668953        0.1270554686
 H          4.2938415501        0.1842144746        0.7803301261
 H          3.9656707882       -0.9730821102       -0.5238279880
 H          3.1385232842       -1.1453376003        1.0501595214
