  24
        -42.78236318
 C          1.6409319141       -2.3971607577        0.2758088945
 C          0.8221315030       -1.1449864083        0.1512027216
 C         -0.5612831268       -1.2346883837        0.1919812417
 C         -1.3826135314       -0.1233439991        0.0361382275
 C         -2.8553701961       -0.3825066467        0.0985493535
 O         -3.3530907142       -1.1081283219        0.9121431410
 O         -3.6046044583        0.2148265921       -0.8460018431
 C         -0.8221486484        1.1449359092       -0.1517087926
 C         -1.6409240199        2.3970721694       -0.2766684209
 C          0.5612907919        1.2346428884       -0.1924123547
 C          1.3826189487        0.1233475986       -0.0363976984
 C          2.8553872085        0.3826488207       -0.0981298797
 O          3.3534715882        1.1086714615       -0.9110686286
 O          3.6042446128       -0.2152614868        0.8463886287
 H          1.0983478290       -3.2332387819       -0.1599171207
 H          1.8181386108       -2.6425652145        1.3247903546
 H          2.5980858184       -2.3086656839       -0.2328732425
 H         -1.0313812339       -2.1953808626        0.3427149292
 H         -3.0753889642        0.7425906535       -1.4583517987
 H         -2.5983817837        2.3085234013        0.2313829023
 H         -1.8174811594        2.6424763442       -1.3257478097
 H         -1.0987008412        3.2331940736        0.1594057260
 H          1.0313734214        2.1953362301       -0.3431993426
 H          3.0748061077       -0.7435259542        1.4581031711
