  20
        -26.43824233
 C         -3.8139634830       -0.3547590294       -0.0186403188
 C         -2.8185671900        0.5244755171        0.0035423516
 C         -1.3928914530        0.2295474793        0.0043933635
 C         -0.4814576755        1.2889953693        0.0067121054
 C          0.8783563660        1.0684024487        0.0069424237
 C          1.3929038243       -0.2295621090        0.0059256445
 C          2.8185910984       -0.5244654621        0.0064169576
 C          3.8139018642        0.3547607874       -0.0216334611
 C          0.4814787048       -1.2890007058        0.0057671742
 C         -0.8783367341       -1.0684077908        0.0043653115
 H         -4.8420698249       -0.0354184283       -0.0178786453
 H         -3.6531796185       -1.4189212374       -0.0396376436
 H         -3.0569235724        1.5815760132        0.0214853249
 H         -0.8549621297        2.3039499101        0.0081214701
 H          1.5490706094        1.9138170216        0.0099444558
 H          3.0569766826       -1.5814880135        0.0300693205
 H          3.6529136503        1.4187974291       -0.0490863400
 H          4.8420742235        0.0356340866       -0.0190766341
 H          0.8549702540       -2.3039622216        0.0062086649
 H         -1.5490528658       -1.9138237386        0.0046666429
  20
        -26.43823447
 C         -3.7311636242       -0.6277647715       -0.0196421292
 C         -2.8537472391        0.3686909187        0.0200516715
 C         -1.4023363856        0.2554215308        0.0098155967
 C         -0.6314818827        1.4201717966        0.0059544822
 C          0.7451998608        1.3639575909       -0.0060205252
 C          1.4185038550        0.1402272282       -0.0104437859
 C          2.8743228536        0.1347178757       -0.0203718797
 C          3.6675055599       -0.9299060958        0.0219832764
 C          0.6473679984       -1.0246653951       -0.0055483292
 C         -0.7287608637       -0.9684717298        0.0039841866
 H         -4.7911780530       -0.4399703321       -0.0087303979
 H         -3.4384059957       -1.6625832847       -0.0662741244
 H         -3.2226506558        1.3869407320        0.0613726034
 H         -1.1264720813        2.3816221380        0.0105315479
 H          1.3169321994        2.2818506767       -0.0100446971
 H          3.3250795989        1.1193893645       -0.0635932960
 H          3.2912850879       -1.9372793770        0.0708765461
 H          4.7393106218       -0.8292451319        0.0111749781
 H          1.1326813248       -1.9886168187       -0.0115351382
 H         -1.2910538204       -1.8896489458        0.0090514663
