  26
        -49.80599152
 C          3.2826323109       -2.8645116787        0.2017184776
 C          3.1805629017       -1.6213763203       -0.2489206170
 C          1.9926972944       -0.7769717053       -0.1133084556
 C          0.7285411026       -1.3457699661       -0.1531488739
 C         -0.4011014523       -0.5523357094       -0.0528361484
 O         -1.6306643282       -1.2564843519       -0.0907848671
 C         -2.7634347595       -0.6139014239        0.0424817657
 F         -2.8895673934        0.0715760279        1.1971258319
 F         -3.0209148608        0.2848416583       -0.9290071168
 F         -3.7658299765       -1.4898651622        0.0157586021
 C         -0.2923844271        0.8170482657        0.0600036942
 C          0.9655998982        1.4198479875        0.0749367753
 C          1.0029907703        2.8800821718        0.1626871131
 C          1.8546708022        3.6826378640       -0.4645171287
 C          2.1235688053        0.6222196172        0.0260389807
 N          3.3755004942        1.1885400733        0.1124899408
 H          4.1753029900       -3.4473463909        0.0529118841
 H          2.4857733059       -3.3417781474        0.7462994731
 H          4.0156760898       -1.1748915563       -0.7743906000
 H          0.6091324325       -2.4086650507       -0.2775337649
 H         -1.1609096767        1.4535976066        0.1195514944
 H          0.2153678053        3.3142729336        0.7667546179
 H          2.6084674163        3.3116362756       -1.1382180750
 H          1.7907283456        4.7527648961       -0.3616097734
 H          3.3989907590        2.1234809677        0.4903798109
 H          4.1096515299        0.5835264741        0.4424907461
