  30
        -34.88541153
 C          3.5288727393       -1.5169788141        0.0520825354
 C          2.9122737380       -0.1264553335       -0.0332351995
 C          1.4061862855       -0.0738856130       -0.0140062123
 C          0.6222449525       -1.2134346844        0.0813380227
 C         -0.7638499612       -1.1641232366        0.0985186793
 C         -1.5489241908       -2.4374575013        0.2053924129
 C         -1.4061451267        0.0740253622        0.0161333754
 C         -2.9122751763        0.1264502462        0.0327131170
 C         -3.5291276654        1.5158687907       -0.0674817602
 C         -0.6221874938        1.2136346912       -0.0783160696
 C          0.7639210229        1.1644110181       -0.0943423726
 C          1.5490392153        2.4380482253       -0.1972302324
 H          4.6140336147       -1.4368597449        0.0281251069
 H          3.2168835751       -2.1335111282       -0.7878957266
 H          3.2470244093       -2.0124819994        0.9783951636
 H          3.2617231764        0.3557208207       -0.9520911237
 H          3.2885334378        0.4752827830        0.8005981438
 H          1.0939633242       -2.1817382615        0.1457284127
 H         -0.8836658817       -3.2956398385        0.2597944975
 H         -2.2028152393       -2.5625095179       -0.6576374409
 H         -2.1766031357       -2.4309908932        1.0964765148
 H         -3.2631307939       -0.3468122055        0.9556708967
 H         -3.2870098244       -0.4835009091       -0.7958081663
 H         -3.2219298613        2.1401655448        0.7685131536
 H         -4.6143696010        1.4354390186       -0.0485142427
 H         -3.2425501634        2.0030774023       -0.9967324501
 H         -1.0938937040        2.1819372630       -0.1427674536
 H          0.8838070068        3.2964026094       -0.2491898745
 H          2.1772567142        2.4345539381       -1.0879451644
 H          2.2024052323        2.5602358875        0.6666144290
