  20
        -26.43824233
 C         -3.8139634830       -0.3547590294       -0.0186403188
 C         -2.8185671900        0.5244755171        0.0035423516
 C         -1.3928914530        0.2295474793        0.0043933635
 C         -0.4814576755        1.2889953693        0.0067121054
 C          0.8783563660        1.0684024487        0.0069424237
 C          1.3929038243       -0.2295621090        0.0059256445
 C          2.8185910984       -0.5244654621        0.0064169576
 C          3.8139018642        0.3547607874       -0.0216334611
 C          0.4814787048       -1.2890007058        0.0057671742
 C         -0.8783367341       -1.0684077908        0.0043653115
 H         -4.8420698249       -0.0354184283       -0.0178786453
 H         -3.6531796185       -1.4189212374       -0.0396376436
 H         -3.0569235724        1.5815760132        0.0214853249
 H         -0.8549621297        2.3039499101        0.0081214701
 H          1.5490706094        1.9138170216        0.0099444558
 H          3.0569766826       -1.5814880135        0.0300693205
 H          3.6529136503        1.4187974291       -0.0490863400
 H          4.8420742235        0.0356340866       -0.0190766341
 H          0.8549702540       -2.3039622216        0.0062086649
 H         -1.5490528658       -1.9138237386        0.0046666429
