26
 energy: -32.771470224930 gnorm: 0.000078061021 xtb: 6.4.1 (23d549d)
C         3.88618915440000    1.09555758770000    0.07351416540000
C         3.21250054640000   -0.04636509430000    0.15030052120000
C         1.77327281820000   -0.22508436070000    0.01658484890000
C         1.24036881570000   -1.51350527400000    0.08247929750000
C        -0.11542617840000   -1.72131915060000   -0.04118091740000
C        -0.99946832280000   -0.65935541370000   -0.23321576640000
C        -2.43110636610000   -0.91973207020000   -0.36704279990000
C        -3.08507536420000   -1.88924733370000    0.25919620660000
C        -0.47776779610000    0.64172295640000   -0.30819459050000
C        -1.37332310800000    1.84046853840000   -0.45943576490000
C        -2.12238007910000    2.13429936640000    0.84138469140000
C         0.88694225510000    0.83349838260000   -0.17765463710000
H         4.95655706870000    1.12213147340000    0.18623914090000
H         3.40999678730000    2.04435843870000   -0.10445082170000
H         3.76119800580000   -0.96395667740000    0.32788012140000
H         1.90141234580000   -2.35677567530000    0.22649779410000
H        -0.50558623060000   -2.72793267250000   -0.00927902020000
H        -2.97732498030000   -0.25793235760000   -1.02686259850000
H        -2.59852018050000   -2.55293992020000    0.95440243380000
H        -4.14102206680000   -2.04369878610000    0.11499124650000
H        -2.09482309170000    1.67858750520000   -1.26349252360000
H        -0.76963592760000    2.70982928580000   -0.72834451930000
H        -2.74467765730000    1.28777075340000    1.12260829570000
H        -2.75662328470000    3.01050942510000    0.72569238320000
H        -1.41561696170000    2.32145348210000    1.64700861000000
H         1.27076847600000    1.84166455240000   -0.22728794770000
