  43
        -65.75200169
 C          5.2268384958        0.1153420746        0.1317474366
 O          4.7544806907       -1.2068378419        0.0940028717
 C          3.4050618218       -1.4160295768        0.0545818860
 C          3.0157314852       -2.7645795932        0.0278991608
 C          1.6888087238       -3.1259448225        0.0055026402
 C          2.4573007765       -0.4036513698        0.0425332236
 C          1.1202181164       -0.7754486369       -0.0032963922
 C          0.7202606758       -2.1286506309       -0.0059473423
 C         -0.7144864171       -2.1304127122       -0.0069874057
 C         -1.6804572794       -3.1300788322       -0.0259021115
 C         -3.0083780944       -2.7720340661       -0.0413800538
 C         -3.4012641183       -1.4243259438       -0.0534731045
 O         -4.7513919421       -1.2182425114       -0.0841922661
 C         -5.2275353897        0.1030671748       -0.0958128656
 C         -2.4560673507       -0.4096168170       -0.0361043073
 C         -1.1178905247       -0.7782315200        0.0023734282
 N          0.0001907607        0.0314993262        0.0023760682
 C         -0.0015003153        1.4335136943        0.0020599751
 C          0.7369658406        2.1374660209       -0.9449252685
 C          0.7366774607        3.5183990112       -0.9366233762
 C         -0.0035852795        4.2303969748        0.0008282506
 C         -0.0141369831        5.7283906077       -0.0189331961
 C         -0.7422518864        3.5193816143        0.9378298100
 C         -0.7401792407        2.1371762846        0.9476130190
 H          6.3129313403        0.0407961413        0.1603566256
 H          4.8776773819        0.6436937932        1.0254758696
 H          4.9272971343        0.6767018082       -0.7599444168
 H          3.7963740565       -3.5082616812        0.0360349760
 H          1.4033248738       -4.1665053615        0.0003664251
 H          2.7305994682        0.6385569261        0.0808848462
 H         -1.3922282537       -4.1698827570       -0.0310303102
 H         -3.7871053632       -3.5176562264       -0.0540826081
 H         -6.3136578139        0.0260065621       -0.1151401822
 H         -4.8885152107        0.6470894340       -0.9840237537
 H         -4.9207591877        0.6504412059        0.8020928411
 H         -2.7323403046        0.6321079852       -0.0644101175
 H          1.2975297279        1.5948854130       -1.6915766176
 H          1.3140261983        4.0554591297       -1.6757037498
 H          0.9854919637        6.1187831366       -0.1989789270
 H         -0.3843192880        6.1278705565        0.9219014020
 H         -0.6611289182        6.0872215820       -0.8200195485
 H         -1.3203005303        4.0541941105        1.6779929490
 H         -1.2981343998        1.5952829887        1.6966849659
  43
        -65.75163324
 C          5.7665752689       -1.6829014511        0.2875762096
 O          4.7103613304       -0.7573650045        0.2406800438
 C          3.4272023738       -1.2267239816        0.1810719790
 C          3.0829272006       -2.5814978488        0.1680817233
 C          1.7599965252       -2.9742487204        0.0918468707
 C          2.4432574257       -0.2427990739        0.1303737276
 C          1.1211665236       -0.6419613790        0.0753725285
 C          0.7651531540       -2.0112444903        0.0412883697
 C         -0.6660025180       -2.0585742321       -0.0557618285
 C         -1.5978755411       -3.0884172975       -0.1082331802
 C         -2.9353298192       -2.7733944944       -0.1764312972
 C         -3.3711246342       -1.4391942578       -0.1777796778
 O         -4.7262378523       -1.2754682209       -0.2293241870
 C         -5.2439931345        0.0302863281       -0.2264186000
 C         -2.4595824834       -0.3949390683       -0.1272134850
 C         -1.1103089063       -0.7195297432       -0.0827601532
 N         -0.0225358186        0.1266940739       -0.0041203678
 C         -0.0729312182        1.5281683478       -0.0066990703
 C         -0.7830296629        2.2034149733       -0.9942680266
 C         -0.8434595196        3.5838968811       -0.9836227428
 C         -0.1925974149        4.3218625554       -0.0028017949
 C         -0.2378320184        5.8193661194       -0.0094439257
 C          0.5226064027        3.6383974732        0.9737331177
 C          0.5810378597        2.2583656122        0.9807506602
 H          6.6775818232       -1.0872894626        0.3279687393
 H          5.7895698302       -2.3157863394       -0.6059127630
 H          5.7106639495       -2.3158564590        1.1795772440
 H          3.8489498972       -3.3391284049        0.2100769234
 H          1.5076213703       -4.0234819326        0.0695536512
 H          2.7369964170        0.7942432840        0.1245722168
 H         -1.2773262823       -4.1187008078       -0.0925352577
 H         -3.6884084747       -3.5437376110       -0.2203105228
 H         -6.3264196779       -0.0806044976       -0.2717932152
 H         -4.9031465818        0.6015814808       -1.0966143820
 H         -4.9743788095        0.5696708234        0.6879199765
 H         -2.7707132606        0.6370051596       -0.1077650954
 H         -1.2741894199        1.6414122979       -1.7747149614
 H         -1.3990886670        4.0971786207       -1.7556287736
 H         -1.1299563266        6.1796348694       -0.5161367980
 H          0.6321711989        6.2158506725       -0.5341503461
 H         -0.2241041395        6.2117499542        1.0049456762
 H          1.0337652157        4.1957685573        1.7455780003
 H          1.1216734704        1.7377646661        1.7566562575
  43
        -65.75113963
 C          5.7285746966       -1.7704744387        0.2648739514
 O          4.7015049232       -0.8124437504        0.2264408985
 C          3.4039992775       -1.2411284068        0.1762335383
 C          3.0170771791       -2.5840768257        0.1702661280
 C          1.6814263936       -2.9339058489        0.1011624404
 C          2.4515309856       -0.2263169678        0.1271515193
 C          1.1167747617       -0.5819878229        0.0800257153
 C          0.7183303395       -1.9396584278        0.0515447984
 C         -0.7141843317       -1.9419112406       -0.0434167449
 C         -1.6740872113       -2.9392391879       -0.0930907187
 C         -3.0106122204       -2.5937011126       -0.1666591576
 C         -3.4016458999       -1.2519689235       -0.1764873129
 O         -4.7002059491       -0.8273629681       -0.2330685551
 C         -5.7237569056       -1.7885473807       -0.2843746620
 C         -2.4525220983       -0.2341127686       -0.1254809578
 C         -1.1167807027       -0.5855107271       -0.0746256205
 N         -0.0012388179        0.2237406220        0.0023662445
 C         -0.0029791849        1.6264974632        0.0013930284
 C         -0.7009882984        2.3279738698       -0.9759450681
 C         -0.7048714178        3.7098017762       -0.9667007386
 C         -0.0099095133        4.4222307569        0.0025182067
 C          0.0070666376        5.9204099535       -0.0061332537
 C          0.6895460291        3.7118379272        0.9711768451
 C          0.6922935234        2.3306514377        0.9795142854
 H          6.6582379555       -1.2036896396        0.2933778844
 H          5.7218690907       -2.4064438355       -0.6266665659
 H          5.6626681275       -2.3987489972        1.1595331424
 H          3.7584387014       -3.3659328388        0.2111769939
 H          1.3955142609       -3.9746975891        0.0828720539
 H          2.7789744033        0.8004880901        0.1155426257
 H         -1.3849867783       -3.9790957966       -0.0719360657
 H         -3.7494339909       -3.3779272400       -0.2081417296
 H         -6.6548469759       -1.2246313718       -0.3218439854
 H         -5.7248186544       -2.4263390835        0.6058817710
 H         -5.6460554594       -2.4147564974       -1.1795484906
 H         -2.7832993190        0.7916393054       -0.1162993281
 H         -1.2294297504        1.7858081264       -1.7454828816
 H         -1.2521205878        4.2438033571       -1.7303610625
 H         -0.8647824631        6.3163782596       -0.5211766995
 H          0.8978003629        6.2800112710       -0.5226559926
 H          0.0274588143        6.3131157000        1.0081088801
 H          1.2325002386        4.2490363633        1.7356934501
 H          1.2210479823        1.7900706087        1.7499716217
