26
 energy: -39.886753732274 gnorm: 0.000168457796 xtb: 6.4.1 (23d549d)
C        -4.54228352130000   -1.36936577060000   -0.31799989490000
C        -3.75398224620000   -0.30257363590000   -0.26651399930000
C        -2.32891062910000   -0.28790940150000    0.03971793920000
C        -1.60795723590000   -1.43233393940000    0.38307829120000
C        -0.26296982140000   -1.34370455990000    0.67636474180000
C         0.42555414210000   -0.13130989190000    0.62352725220000
C         1.88660702920000   -0.11731464970000    0.96104444980000
C         2.79337875920000   -0.43483177060000   -0.22981054550000
O         3.93694911540000   -0.08722819680000   -0.28683767120000
O         2.23539366050000   -1.16146512430000   -1.20567832390000
C        -0.27868912810000    1.02454462180000    0.26115397160000
C         0.32876512170000    2.35507748920000    0.15691310920000
C         1.49079431680000    2.64855145940000   -0.40827977310000
C        -1.64295359870000    0.92303999500000    0.00224528330000
H        -5.58811040990000   -1.27937739040000   -0.55587005820000
H        -4.18837333450000   -2.36847323860000   -0.13010089620000
H        -4.17782402350000    0.67288879280000   -0.47187186080000
H        -2.09886009130000   -2.39067989640000    0.43818582190000
H         0.26904995840000   -2.23727635720000    0.97734876400000
H         2.10248105890000   -0.88560964380000    1.71038414620000
H         2.19891059410000    0.84441469190000    1.36894089220000
H         1.29749710400000   -1.34440683490000   -1.02606142870000
H        -0.29182681540000    3.15718007490000    0.53904586950000
H         2.13100402540000    1.90916888510000   -0.85743896130000
H         1.83931861270000    3.66579919490000   -0.46555068970000
H        -2.18420839210000    1.82304897280000   -0.25568045880000
