  46
        -77.30524462
 C          3.1208844211       -5.8489293388       -0.5727549994
 O          2.0821651552       -5.3397184843        0.2263815484
 C          1.7727049181       -4.0157725857        0.1250683695
 C          2.4140172244       -3.1050106910       -0.7068725769
 C          2.0104631337       -1.7819587871       -0.7304321665
 C          0.9703217113       -1.3361180701        0.0774435466
 N          0.5810040801        0.0129460031        0.0580539784
 C         -0.7601139624        0.3624867384        0.1183102253
 C         -1.7445384665       -0.4722993888       -0.4206746911
 C         -3.0758708589       -0.1282252057       -0.3603922598
 C         -3.4831070449        1.0671736856        0.2394192029
 C         -4.8664262071        1.4905273147        0.3361264762
 C         -5.9561158924        0.8649601393       -0.0867126456
 F         -6.0427426268       -0.3092926932       -0.7057144489
 F         -7.1862660414        1.3623599794        0.0632020841
 C         -2.4948252904        1.8993085725        0.7750455446
 C         -1.1630928652        1.5591439112        0.7198095722
 C          1.5746767606        1.0014986255       -0.0229937079
 C          1.3982616835        2.1279104368       -0.8282761205
 C          2.3794292325        3.0896547294       -0.9069438142
 C          3.5725173360        2.9526326747       -0.1944813401
 O          4.4771518908        3.9611898333       -0.3488202417
 C          5.6958781830        3.8814330193        0.3477479594
 C          3.7560789270        1.8270815535        0.6006792413
 C          2.7633246647        0.8673822166        0.6860111583
 C          0.3352270150       -2.2512934672        0.9184852508
 C          0.7271511963       -3.5703163021        0.9364158480
 H          3.1867006749       -6.9084817543       -0.3305430899
 H          4.0776038220       -5.3668895099       -0.3456397157
 H          2.9012561246       -5.7356256956       -1.6394934423
 H          3.2246565607       -3.4112223207       -1.3489325105
 H          2.5109450460       -1.0837544619       -1.3850448105
 H         -1.4511290858       -1.3947979424       -0.8988333582
 H         -3.8036629012       -0.7939886692       -0.7941734016
 H         -5.0459420984        2.4419799501        0.8163213910
 H         -2.7836560227        2.8251704242        1.2510508249
 H         -0.4200952240        2.2133288052        1.1509275495
 H          0.4852135466        2.2403879123       -1.3935274999
 H          2.2506001511        3.9625290590       -1.5268485116
 H          6.2486605746        4.7800487143        0.0783539332
 H          6.2733549811        2.9998827621        0.0501411225
 H          5.5403471058        3.8648181168        1.4315298466
 H          4.6634633039        1.6860202838        1.1662762105
 H          2.9131934056       -0.0002787012        1.3114395701
 H         -0.4675368443       -1.9178693816        1.5589241887
 H          0.2410672104       -4.2834129171        1.5828873532
