  41
        -49.70424021
 C         -3.2692872642       -1.0039663379        2.9899272842
 C         -2.5914115368       -0.0202134763        2.4047754458
 C         -2.2357137274        0.0241578636        1.0140047083
 C         -1.5404931967        1.0157838960        0.3705513035
 C         -1.3415752897        0.7857496280       -1.0032884086
 C         -0.5697229369        1.7201264126       -1.8826674084
 C          0.8648336743        1.2257906737       -2.1148703104
 C          1.6701249889        1.1671253905       -0.8197782798
 C          3.0911496829        0.6635943674       -1.0599380512
 C          3.9573286862        0.6828658345        0.1998733726
 C          3.4855731816       -0.3043400496        1.2665303344
 C          4.4824401952       -0.4674564137        2.4144974175
 C          4.6394158559        0.7945435195        3.2548799670
 C         -1.8928491281       -0.4078412459       -1.4195724435
 C         -1.8899092222       -0.9649268609       -2.7435616962
 C         -2.3816665504       -2.1573806733       -3.0707974245
 S         -2.6626797460       -1.2406498035       -0.0975082189
 H         -3.5079571389       -0.9818788915        4.0383420952
 H         -3.6051961435       -1.8619332016        2.4312595725
 H         -2.2611684695        0.8355257310        2.9808160017
 H         -1.1816998385        1.8954626043        0.8770350665
 H         -0.5362496084        2.7041955214       -1.4105854557
 H         -1.0729625710        1.8269278023       -2.8463658189
 H          1.3598033181        1.8972654059       -2.8208068121
 H          0.8348062605        0.2302948622       -2.5635040144
 H          1.1613277233        0.5062676368       -0.1166407330
 H          1.7118473254        2.1643140692       -0.3741851570
 H          3.5637438590        1.2924117019       -1.8194796451
 H          3.0500762098       -0.3544041335       -1.4551611034
 H          3.9633062715        1.6946577834        0.6090652214
 H          4.9836118881        0.4310405038       -0.0799703909
 H          3.3318021806       -1.2793668802        0.7970450443
 H          2.5274739454        0.0215113785        1.6754750210
 H          5.4553450685       -0.7565576743        2.0098524772
 H          4.1393703827       -1.2799316810        3.0597995015
 H          5.0718615049        1.6016561185        2.6694704282
 H          5.2927651542        0.6045996376        4.1036432225
 H          3.6730449395        1.1214073065        3.6331845923
 H         -1.4456179286       -0.3378669151       -3.5055000636
 H         -2.8242468944       -2.8049824183       -2.3320434339
 H         -2.3551905296       -2.5215512540       -4.0825061616
