  19
        -28.27151140
 C          3.2084360487       -0.4422186839       -0.0563535537
 C          2.1191346790        0.2823912100        0.1680403367
 C          0.7831426414       -0.2517111362        0.0488819427
 N          0.5316994508       -1.5780025654       -0.0537673173
 N         -0.7276414378       -1.7768389242       -0.0847271845
 N         -1.3563102675       -0.6099253584        0.0055813144
 C         -2.7859898261       -0.5385385650       -0.0126617071
 C         -0.4529381792        0.4066195284        0.0824745840
 C         -0.8402315811        1.7906283063        0.1786843454
 C         -0.1071298838        2.8148028545       -0.2439446845
 H          4.1970275589       -0.0317705650        0.0559527059
 H          3.1272370077       -1.4715485335       -0.3596678869
 H          2.1848904652        1.3174774973        0.4754850933
 H         -3.1591176841       -1.5534455675       -0.1354286213
 H         -3.1295566943        0.0811403849       -0.8429556624
 H         -3.1642030827       -0.1251768254        0.9248739793
 H         -1.8120900396        1.9703940656        0.6231410488
 H          0.8425820393        2.6757193236       -0.7301581366
 H         -0.4483369848        3.8292788101       -0.1318857937
  19
        -28.27044696
 C          2.9885853133        0.6085134246       -0.0743499176
 C          2.3123468511       -0.4941348224        0.2236927703
 C          0.8809376754       -0.6503243094        0.1235072631
 N          0.3150061361       -1.8740867078        0.0218255418
 N         -0.9509009719       -1.7540309955       -0.0765216014
 N         -1.2734327764       -0.4643013076       -0.0522146609
 C         -2.6489508324       -0.0700847179       -0.0997591732
 C         -0.1523258842        0.2958591487        0.0816369873
 C         -0.1044276193        1.7285435436        0.2336810871
 C         -0.9289961975        2.6092531959       -0.3224363669
 H          4.0598302781        0.6498068748        0.0225509470
 H          2.5074161222        1.4983959531       -0.4438304560
 H          2.8267953642       -1.3911991827        0.5398294204
 H         -3.2468623388       -0.9332153304        0.1891407901
 H         -2.9331263226        0.2313275379       -1.1103056388
 H         -2.8264829407        0.7565305989        0.5885536557
 H          0.7086025522        2.0722029020        0.8612244325
 H         -1.7211176706        2.3270585423       -0.9937188546
 H         -0.8121732844        3.6644526762       -0.1455874779
  19
        -28.26966091
 C          2.8152630628        0.7716481014        0.4408507156
 C          2.2135178498       -0.2586248349       -0.1383234877
 C          0.7918297240       -0.5263614267       -0.1278932827
 N          0.3561937535       -1.8008096610       -0.2674486807
 N         -0.9139306298       -1.8407879342       -0.1578772743
 N         -1.3669961233       -0.6121306427        0.0579212459
 C         -2.7689925121       -0.3593807148        0.2019927553
 C         -0.3357233153        0.2783048554        0.0765133867
 C         -0.5644807628        1.6966573696        0.2255476952
 C          0.1697650918        2.6438746043       -0.3444288718
 H          3.8862819747        0.8763823085        0.4191915275
 H          2.2680768138        1.5362745011        0.9660366856
 H          2.7898868537       -1.0365417576       -0.6206853201
 H         -3.2829450132       -1.3105844053        0.0779218496
 H         -3.1128920649        0.3448119644       -0.5576979249
 H         -2.9893036519        0.0442239240        1.1925489886
 H         -1.4279252801        1.9650466693        0.8230121332
 H          1.0134074961        2.4068691278       -0.9693689839
 H         -0.0578969040        3.6868350204       -0.2084827539
