  41
        -58.14175896
 C          5.1979530939       -2.0070299473       -0.9052324249
 C          4.0299615530       -2.0493957304       -0.2769132411
 C          3.1220333881       -0.9292669908       -0.0472150768
 C          3.4965533637        0.3935982410       -0.2645472091
 C          2.5981698235        1.4255092247       -0.0205009483
 C          2.9447933247        2.8298763528       -0.2190904525
 C          4.1592722240        3.3252944148       -0.4203851734
 C          1.3093882237        1.1217085404        0.4167136552
 C          0.9017444078       -0.1933584060        0.6445609309
 N         -0.3499681903       -0.5144397613        1.1599073107
 C         -1.0762858283       -1.6460437573        0.6269791178
 C         -1.8919170396       -1.2467982223       -0.6089135024
 C         -2.8701310694       -0.1174674619       -0.2551650999
 C         -2.1032215331        1.0503004505        0.3804872432
 C         -1.2674781981        0.5286458330        1.5548448093
 O         -3.8572213271       -0.6264053844        0.6323565811
 C         -5.1252318819       -0.2561746274        0.1443556245
 C         -4.8803886311       -0.1014105539       -1.3576414626
 O         -3.5486935267        0.3552790360       -1.4097390605
 C          1.8403392960       -1.2040944935        0.4189475785
 H          5.7987752746       -2.8915062815       -1.0322801185
 H          5.6010383229       -1.1013368709       -1.3246590332
 H          3.6760056293       -3.0006976893        0.1030831076
 H          4.4880852655        0.6185448660       -0.6185950565
 H          2.1042312163        3.5128036173       -0.1745465395
 H          5.0409129761        2.7087131788       -0.4554271707
 H          4.3192776870        4.3820542810       -0.5511463707
 H          0.6295018735        1.9433665286        0.5778521952
 H         -1.7617847466       -2.0054092482        1.4005713251
 H         -0.3937504192       -2.4516357800        0.3641410676
 H         -2.4545960893       -2.1036625678       -0.9809996885
 H         -1.2296405225       -0.8881151475       -1.3984199228
 H         -2.8149472164        1.8021725414        0.7236870086
 H         -1.4713713503        1.4908830678       -0.3906711698
 H         -1.9515291215        0.0929748478        2.2913354118
 H         -0.7210491546        1.3385481301        2.0386626053
 H         -5.4462685702        0.6956077338        0.5899361509
 H         -5.8363017918       -1.0421755777        0.3985145193
 H         -5.5185043836        0.6410161843       -1.8361652302
 H         -4.9774788501       -1.0662784915       -1.8741363965
 H          1.5811642473       -2.2327826064        0.6191938164
