  20
        -36.46956843
 C         -1.4734274614       -2.8509528701       -0.2829698699
 C         -2.2104936755       -1.7852813109        0.0078193004
 C         -1.7487398256       -0.4168828015        0.0353137221
 C         -2.5465317500        0.7313398861       -0.1175100730
 N         -1.8183024513        1.8270463203       -0.0668846272
 N         -0.5606525516        1.4438396762        0.1068497361
 C          0.4544135102        2.4425903387        0.2779348840
 C         -0.4511872498        0.0917865782        0.1785036663
 C          0.7574829982       -0.6451248584        0.4590036082
 C          1.9824028180       -0.3975007242        0.0205678740
 F          2.3637015890        0.5695716451       -0.8088909424
 F          3.0427615914       -1.1315897800        0.3516718791
 H         -1.8973475874       -3.8403048823       -0.2843852982
 H         -0.4344404135       -2.7768654564       -0.5549764414
 H         -3.2655771294       -1.9037033689        0.2213870969
 H         -3.6064402509        0.7876225350       -0.2644898327
 H         -0.0474074652        3.3756174143        0.5270762490
 H          1.0287495293        2.5831896298       -0.6394719670
 H          1.1323999641        2.1617630713        1.0843331279
 H          0.6387521834       -1.5237750651        1.0776356274
  20
        -36.46823660
 C         -0.8430342007       -2.5246985671       -0.7172244527
 C         -1.5391226097       -1.6947351579        0.0478002666
 C         -1.3851762914       -0.2552708074        0.0870788358
 C         -2.4300094851        0.6599628708        0.3195856637
 N         -2.0158039575        1.9046465510        0.2034486438
 N         -0.7270916042        1.8438377363       -0.0967450628
 C          0.0318872510        3.0494606416       -0.2568134188
 C         -0.2795428612        0.5608765777       -0.1716949252
 C          1.1143996501        0.2875621650       -0.4321201057
 C          1.8146006258       -0.7137954886        0.0802277214
 F          1.3884537356       -1.6368615022        0.9275519368
 F          3.1007154194       -0.9231983737       -0.1962917620
 H         -1.0334028548       -3.5834592624       -0.7151449909
 H         -0.0682085683       -2.1798185423       -1.3812860834
 H         -2.3403837645       -2.0753266704        0.6683734824
 H         -3.4544307988        0.4459683488        0.5494886580
 H         -0.6412994878        3.8817861629       -0.0628333023
 H          0.4212853423        3.1332182828       -1.2738592262
 H          0.8633499014        3.0823159855        0.4496089136
 H          1.6519740684        0.9739910458       -1.0698853100
