  23
        -38.82530414
 C         -3.6874420902       -1.6440885852       -0.0393565763
 C         -2.9672822762       -0.5505088202        0.2044290731
 C         -1.5398568211       -0.4407221730        0.0725369107
 N         -0.7245073221       -1.5485130894       -0.0053311634
 C          0.5666695841       -1.1635961571       -0.0243770869
 N          1.6378625852       -1.9912224536       -0.0893567834
 C          2.7734958625       -1.3844839604       -0.0895816786
 N          2.9325673817       -0.0402171583       -0.0293469852
 C          1.8811731953        0.8998705391        0.0412175005
 O          2.1402891972        2.0826359371        0.1018494075
 C          0.6086666585        0.2359041505        0.0377977452
 C         -0.7365650548        0.6979441980        0.0879663695
 C         -1.1050459286        2.0959208809        0.1199310917
 C         -2.2304961323        2.6169371260       -0.3556189199
 H         -4.7532676156       -1.6535405748        0.1037231606
 H         -3.2539500712       -2.5596228456       -0.4066786346
 H         -3.4573649895        0.3503973192        0.5452650598
 H         -1.0412250067       -2.5034758897       -0.0052720016
 H          3.6707539263       -1.9849191009       -0.1399706734
 H          3.8630075794        0.3592207487       -0.0307715097
 H         -0.3381075639        2.7426017133        0.5256291774
 H         -2.9863884250        2.0197864464       -0.8370491377
 H         -2.4198266648        3.6753074762       -0.3026945362
