  24
        -42.12671896
 C         -1.7591569044       -2.9108986691        0.6842531794
 C         -1.4114496632       -1.8900851399       -0.0872808477
 C         -0.1358607946       -1.1833329366       -0.0190201661
 C          1.0326729725       -1.8639163938        0.3329388120
 C          2.2595608263       -1.2447945107        0.3297716295
 C          2.3711832654        0.0962396494       -0.0486562911
 O          3.6270512343        0.6165819539       -0.0379238468
 C          3.8045883496        1.9612811562       -0.4118854404
 C          1.2241451327        0.7882892909       -0.4060358210
 C         -0.0245496647        0.1672381881       -0.3753571596
 C         -1.1818081311        0.9966928090       -0.7177176257
 C         -2.3334230599        1.0311994891       -0.0695062657
 F         -2.6696284737        0.3457251755        1.0148254917
 F         -3.3472739890        1.8269204040       -0.4127045793
 H         -2.7098770162       -3.4023302733        0.5724508154
 H         -1.1224639932       -3.2770270240        1.4716368435
 H         -2.1037269781       -1.5313547094       -0.8393014345
 H          0.9685661922       -2.9093316806        0.5918411892
 H          3.1568789328       -1.7774217325        0.6014215422
 H          4.8731080349        2.1518820858       -0.3262745592
 H          3.2625204524        2.6392090321        0.2553327723
 H          3.4884346024        2.1365848459       -1.4452903261
 H          1.2700063340        1.8273244180       -0.6934675031
 H         -1.0747717310        1.6897283327       -1.5396240041
