  47
        -61.77820811
 C         -2.8242253413        2.8839551835       -2.3955018419
 C         -1.9066720124        3.8916568936       -1.7125003329
 C         -1.8229669002        3.6984653278       -0.1982373909
 C         -1.1254298841        2.3987591447        0.1977736994
 C         -1.0057294739        2.2837081480        1.7187357500
 C         -0.3392505590        0.9753376439        2.2223588531
 N          0.0868697643        0.0439878945        1.2017692460
 C         -0.8338736387       -0.8816474498        0.7139939050
 C         -2.2049660686       -0.7155311958        0.9164836230
 C         -3.1285950201       -1.6331499791        0.4452033616
 C         -2.7320667875       -2.7505391797       -0.2694280030
 C         -3.7159865215       -3.7529909603       -0.7889986344
 C         -1.3704688815       -2.9248633225       -0.4823281504
 C         -0.4433018991       -2.0245404781        0.0085305002
 S          1.2624830270       -2.4282220395       -0.2377409997
 C          1.9890030762       -0.8231832966       -0.0678850878
 C          3.2423574647       -0.6480724039       -0.6273090778
 C          3.9377015966        0.5439518719       -0.4835504018
 C          5.3115940152        0.7109357761       -1.0560003646
 C          3.3238662496        1.5597608470        0.2322669792
 C          2.0602823336        1.3974142767        0.7715618419
 C          1.3534081923        0.1999982879        0.6411327197
 H         -2.9172046926        3.1167202918       -3.4538850778
 H         -3.8168937708        2.9109383072       -1.9508372510
 H         -2.4340490354        1.8734047190       -2.3059079230
 H         -2.2783803840        4.8992990461       -1.9141062899
 H         -0.9042454921        3.8177181994       -2.1403454665
 H         -2.8320003888        3.7126300959        0.2215622269
 H         -1.2753197431        4.5405856188        0.2334211088
 H         -0.1347772049        2.3753205677       -0.2598484608
 H         -1.6922457627        1.5532479851       -0.1909003578
 H         -2.0068966828        2.3635057904        2.1489230399
 H         -0.4377412371        3.1411602070        2.0874650797
 H         -1.0283207023        0.4375019483        2.8790449772
 H          0.5410456891        1.2157965130        2.8244167874
 H         -2.5755945411        0.1411916655        1.4534343049
 H         -4.1777523116       -1.4617045613        0.6380877744
 H         -4.7361152760       -3.4236263826       -0.6085404510
 H         -3.5703381007       -4.7150579231       -0.2983642710
 H         -3.5798579564       -3.9020079340       -1.8591157247
 H         -1.0117810838       -3.7893854983       -1.0211898528
 H          3.6825869126       -1.4744937366       -1.1654953255
 H          5.4580847372        0.0522460148       -1.9085044776
 H          6.0626041986        0.4641096035       -0.3045069892
 H          5.4763494822        1.7393937288       -1.3700074107
 H          3.8333740196        2.5025710742        0.3696520923
 H          1.6282787947        2.2281012888        1.3035075162
