  24
        -28.55450150
 C          2.4350520961        1.6422869146       -0.7488177595
 C          1.8674213965        1.0898247794        0.5604025188
 C          0.6101899043        0.3033510889        0.3051477377
 C         -0.6024902158        0.9797693258        0.2681813573
 C         -1.7990157585        0.3340896449        0.0009699632
 C         -3.0992056905        1.0802052712       -0.0259789202
 C         -1.7663237875       -1.0343991845       -0.2327802788
 C         -0.5678367393       -1.7197448937       -0.1986245683
 C          0.6323865586       -1.0713272711        0.0646991993
 C          1.9096616230       -1.8588866086        0.0978990135
 H          3.3428231259        2.2116735836       -0.5609299566
 H          1.7084197319        2.2946375955       -1.2279376343
 H          2.6695830652        0.8345464456       -1.4382604323
 H          1.6408494703        1.9254157630        1.2267365737
 H          2.6183775676        0.4674175543        1.0476498497
 H         -0.6089439480        2.0453216322        0.4558408973
 H         -2.9348736472        2.1530830495        0.0371596145
 H         -3.7248395990        0.7775120691        0.8138435935
 H         -3.6457550746        0.8629338588       -0.9424887410
 H         -2.6847227832       -1.5642124496       -0.4425476130
 H         -0.5618245740       -2.7852400764       -0.3829291018
 H          1.7234058282       -2.8946528349       -0.1757107206
 H          2.3448475907       -1.8440116323        1.0973989430
 H          2.6429728436       -1.4476408140       -0.5934302299
  24
        -28.55317595
 C          2.0911629079        2.3389624382       -0.0600218389
 C          2.0640998165        0.8169971042        0.0023465236
 C          0.6972378946        0.1815453749        0.0052043058
 C         -0.4676704512        0.9338960703       -0.0478816377
 C         -1.7241145063        0.3452290607       -0.0449594103
 C         -2.9694789986        1.1783383814       -0.1098815838
 C         -1.8080051161       -1.0383415322        0.0127861213
 C         -0.6576152496       -1.8013262729        0.0660975809
 C          0.5991499911       -1.2133033709        0.0633118272
 C          1.8248774718       -2.0745939786        0.1224187520
 H          3.1229983961        2.6850887382       -0.0559385421
 H          1.5858120445        2.7736940257        0.7994636605
 H          1.6172897989        2.7009543293       -0.9696357323
 H          2.5947709752        0.4943163732        0.9039339884
 H          2.6246517178        0.4217598342       -0.8510193675
 H         -0.4085810290        2.0102936405       -0.0927633723
 H         -2.7341917405        2.2384941287       -0.0574433931
 H         -3.6389223396        0.9283373798        0.7120992193
 H         -3.5025839529        0.9886470592       -1.0414374811
 H         -2.7761933411       -1.5186645337        0.0165113136
 H         -0.7362668266       -2.8787889855        0.1114160167
 H          1.5515481322       -3.1260575941        0.1625272795
 H          2.4215671772       -1.8396629387        1.0037709986
 H          2.4532461391       -1.9149039039       -0.7537490071
