  24
        -28.55450150
 C          2.4350520961        1.6422869146       -0.7488177595
 C          1.8674213965        1.0898247794        0.5604025188
 C          0.6101899043        0.3033510889        0.3051477377
 C         -0.6024902158        0.9797693258        0.2681813573
 C         -1.7990157585        0.3340896449        0.0009699632
 C         -3.0992056905        1.0802052712       -0.0259789202
 C         -1.7663237875       -1.0343991845       -0.2327802788
 C         -0.5678367393       -1.7197448937       -0.1986245683
 C          0.6323865586       -1.0713272711        0.0646991993
 C          1.9096616230       -1.8588866086        0.0978990135
 H          3.3428231259        2.2116735836       -0.5609299566
 H          1.7084197319        2.2946375955       -1.2279376343
 H          2.6695830652        0.8345464456       -1.4382604323
 H          1.6408494703        1.9254157630        1.2267365737
 H          2.6183775676        0.4674175543        1.0476498497
 H         -0.6089439480        2.0453216322        0.4558408973
 H         -2.9348736472        2.1530830495        0.0371596145
 H         -3.7248395990        0.7775120691        0.8138435935
 H         -3.6457550746        0.8629338588       -0.9424887410
 H         -2.6847227832       -1.5642124496       -0.4425476130
 H         -0.5618245740       -2.7852400764       -0.3829291018
 H          1.7234058282       -2.8946528349       -0.1757107206
 H          2.3448475907       -1.8440116323        1.0973989430
 H          2.6429728436       -1.4476408140       -0.5934302299
