  47
        -56.03045761
 C         -0.0558707156       -2.8872876360       -2.6082621864
 C          0.1575630997       -2.6990525003       -1.3080431967
 C          0.8075902084       -1.5534840080       -0.7309111559
 C          1.3856012513       -0.4652569540       -1.3337414830
 C          1.9037822475        0.4964584259       -0.4452878833
 C          2.4878066404        1.7875247039       -0.9333547645
 C          1.6822553264        3.0251344358       -0.5024867978
 C          0.4908745837        3.3541929897       -1.4051589919
 C         -0.5786323020        2.2675877663       -1.5161369648
 C         -1.2381790332        1.8981990835       -0.1903247977
 C         -2.2406826558        0.7601370949       -0.3701824381
 C         -2.8267282470        0.2987577951        0.9618689494
 C         -3.9019746990       -0.7776514113        0.8034800194
 C         -3.3744745040       -2.1467829504        0.3698705415
 C         -2.5954677261       -2.8587136730        1.4694597430
 C          1.7521607362        0.1208651046        0.8758462739
 C          2.1483377841        0.7083956551        2.1299835556
 C          2.9688839402        1.7349880580        2.3421792148
 S          0.9211232769       -1.4072941488        0.9913704614
 H         -0.5550779751       -3.7684572250       -2.9704097892
 H          0.2571150515       -2.1741363320       -3.3511867954
 H         -0.1809924793       -3.4389426967       -0.5946641345
 H          1.4453118432       -0.3584406268       -2.4032212025
 H          2.5431060945        1.7591421940       -2.0236494403
 H          3.5109066618        1.8778780425       -0.5594981181
 H          2.3494817400        3.8910769885       -0.5179466591
 H          1.3392176222        2.8976801748        0.5238154325
 H          0.8629594828        3.5715855410       -2.4104380400
 H          0.0262978825        4.2680677375       -1.0248472068
 H         -0.1407690172        1.3701600841       -1.9524395032
 H         -1.3509563296        2.6191841028       -2.2059391956
 H         -1.7429513673        2.7733604292        0.2261571855
 H         -0.4782323158        1.5829219498        0.5255988246
 H         -1.7363608727       -0.0760290981       -0.8587314867
 H         -3.0494887199        1.0881502793       -1.0281983619
 H         -3.2720999433        1.1616197445        1.4641679358
 H         -2.0231743689       -0.0712242847        1.6006988224
 H         -4.6323887988       -0.4313158700        0.0676508197
 H         -4.4264585212       -0.8956197310        1.7551821290
 H         -2.7424784661       -2.0385739131       -0.5132132225
 H         -4.2273299316       -2.7690920395        0.0867083981
 H         -1.6943985397       -2.3101011126        1.7302026841
 H         -2.3031175355       -3.8541959701        1.1419215582
 H         -3.2069041961       -2.9605877832        2.3638210011
 H          1.7266418038        0.2010906221        2.9905852311
 H          3.4504573534        2.2816510024        1.5536165183
 H          3.1923875002        2.0539688263        3.3456561425
