  20
        -39.12025324
 C          1.1152679023       -2.3556243334       -0.9953848735
 C          0.2833829873       -2.1722334283        0.0181699560
 C         -0.7086270896       -1.0947028731        0.0960709632
 C         -2.0131700626       -1.4309091747        0.4543624193
 C         -3.0294626885       -0.4952008512        0.4473611935
 C         -2.7625960574        0.8129166180        0.0800393715
 C         -1.4658457356        1.1510771832       -0.2477038822
 F         -1.1982262373        2.4332356659       -0.5789274870
 C         -0.4131209489        0.2363258678       -0.2322690993
 C          0.9312502757        0.7389827190       -0.5245364047
 C          2.0163815933        0.4581267877        0.1743918793
 F          2.0977802643       -0.3468888514        1.2262290830
 F          3.2189224829        0.9604710349       -0.0881238222
 H          1.7935825667       -3.1905595747       -1.0238677168
 H          1.1437514272       -1.6857865390       -1.8391643460
 H          0.2526624218       -2.8855960494        0.8311397522
 H         -2.2290048867       -2.4546953026        0.7212413164
 H         -4.0326999239       -0.7818117036        0.7219852397
 H         -3.5326945610        1.5669238524        0.0550935755
 H          1.0289745404        1.4703161155       -1.3133142288
