20
 energy: -39.120253239318 gnorm: 0.000046735206 xtb: 6.4.1 (23d549d)
C         1.11526790230000   -2.35562433340000   -0.99538487350000
C         0.28338298730000   -2.17223342830000    0.01816995600000
C        -0.70862708960000   -1.09470287310000    0.09607096320000
C        -2.01317006260000   -1.43090917470000    0.45436241930000
C        -3.02946268850000   -0.49520085120000    0.44736119350000
C        -2.76259605740000    0.81291661800000    0.08003937150000
C        -1.46584573560000    1.15107718320000   -0.24770388220000
F        -1.19822623730000    2.43323566590000   -0.57892748700000
C        -0.41312094890000    0.23632586780000   -0.23226909930000
C         0.93125027570000    0.73898271900000   -0.52453640470000
C         2.01638159330000    0.45812678770000    0.17439187930000
F         2.09778026430000   -0.34688885140000    1.22622908300000
F         3.21892248290000    0.96047103490000   -0.08812382220000
H         1.79358256670000   -3.19055957470000   -1.02386771680000
H         1.14375142720000   -1.68578653900000   -1.83916434600000
H         0.25266242180000   -2.88559604940000    0.83113975220000
H        -2.22900488670000   -2.45469530260000    0.72124131640000
H        -4.03269992390000   -0.78181170360000    0.72198523970000
H        -3.53269456100000    1.56692385240000    0.05509357550000
H         1.02897454040000    1.47031611550000   -1.31331422880000
