  19
        -28.27151140
 C          3.2084360487       -0.4422186839       -0.0563535537
 C          2.1191346790        0.2823912100        0.1680403367
 C          0.7831426414       -0.2517111362        0.0488819427
 N          0.5316994508       -1.5780025654       -0.0537673173
 N         -0.7276414378       -1.7768389242       -0.0847271845
 N         -1.3563102675       -0.6099253584        0.0055813144
 C         -2.7859898261       -0.5385385650       -0.0126617071
 C         -0.4529381792        0.4066195284        0.0824745840
 C         -0.8402315811        1.7906283063        0.1786843454
 C         -0.1071298838        2.8148028545       -0.2439446845
 H          4.1970275589       -0.0317705650        0.0559527059
 H          3.1272370077       -1.4715485335       -0.3596678869
 H          2.1848904652        1.3174774973        0.4754850933
 H         -3.1591176841       -1.5534455675       -0.1354286213
 H         -3.1295566943        0.0811403849       -0.8429556624
 H         -3.1642030827       -0.1251768254        0.9248739793
 H         -1.8120900396        1.9703940656        0.6231410488
 H          0.8425820393        2.6757193236       -0.7301581366
 H         -0.4483369848        3.8292788101       -0.1318857937
