  23
        -33.98077018
 C          3.5022491420        1.4417613720        0.0296754636
 C          2.7850986635        0.3479959925       -0.2114853439
 C          1.3550258060        0.2619558895       -0.0810696640
 S          0.4038961262        1.7304388103        0.0425747788
 C         -1.0748718807        0.8179684545        0.0253747781
 C         -2.3611816480        1.3294337108        0.1001406746
 C         -3.4202382764        0.4459595148        0.0729825672
 C         -3.1980556331       -0.9274000063       -0.0206893156
 C         -1.9201031415       -1.4354357712       -0.0893826946
 C         -0.8290815376       -0.5636113959       -0.0749557429
 C          0.5732228827       -0.8665807333       -0.1250776096
 C          1.0644058188       -2.2322824241       -0.2045258789
 C          2.1309398638       -2.7049926051        0.4281753892
 H          4.5694970058        1.4582594027       -0.1035173215
 H          3.0414338310        2.3531095664        0.3741477845
 H          3.2680227877       -0.5612042873       -0.5457539273
 H         -2.5204574313        2.3938490072        0.1773918816
 H         -4.4311091531        0.8209719574        0.1274430915
 H         -4.0428088758       -1.6000353882       -0.0360712785
 H         -1.7573200767       -2.5008274033       -0.1515982367
 H          0.4642691328       -2.8971934903       -0.8137007228
 H          2.7212970905       -2.0940423382        1.0899578903
 H          2.4350554075       -3.7328381425        0.3249594203
  23
        -33.97864028
 C          3.7673787737        0.2119496385        0.1289064005
 C          2.7568035381        0.9894581689       -0.2499517801
 C          1.3585772650        0.6481583151       -0.1725963789
 S          0.2054944437        1.9661827918       -0.0893885567
 C         -1.1186960472        0.8467495453        0.0135279150
 C         -2.4639174894        1.1695707226        0.1064404207
 C         -3.3832290670        0.1424531609        0.1453067803
 C         -2.9654772758       -1.1862568732        0.0753642540
 C         -1.6295293269       -1.5062645247       -0.0142746507
 C         -0.6729060493       -0.4881483112       -0.0261616087
 C          0.7561990682       -0.5834852502       -0.1250989825
 C          1.4814344797       -1.8418331819       -0.2362664744
 C          1.2525236829       -2.9146953195        0.5085892119
 H          4.7875079575        0.5410403869        0.0312357529
 H          3.6118195458       -0.7585941571        0.5664629050
 H          2.9580038501        1.9849203572       -0.6265299848
 H         -2.7745827554        2.2023979087        0.1404801061
 H         -4.4362176626        0.3689871057        0.2182192142
 H         -3.7041606105       -1.9740009806        0.0875424339
 H         -1.3143948251       -2.5356015227       -0.0882506140
 H          2.2603322512       -1.8581796122       -0.9902131839
 H          0.5234013794       -2.9142605322        1.3014159260
 H          1.8102659990       -3.8254931701        0.3703371262
  23
        -33.97641944
 C          3.6665319387        0.1711670411        0.6077654061
 C          2.7332574656        0.8043445972       -0.0934357844
 C          1.3206880186        0.4932028718       -0.1027024727
 S          0.2412438888        1.8547293707       -0.3623669539
 C         -1.1528755940        0.8479872686       -0.1244407787
 C         -2.4803865074        1.2448713579       -0.1730907544
 C         -3.4562242879        0.2930832389        0.0366432237
 C         -3.1114808811       -1.0348916460        0.2862650316
 C         -1.7930261335       -1.4288924910        0.3306436041
 C         -0.7826513695       -0.4846639934        0.1326442562
 C          0.6417974727       -0.6732985331        0.1295927021
 C          1.2179781948       -2.0039348973        0.2932298395
 C          2.1823918390       -2.5125702787       -0.4590161594
 H          4.6937202497        0.4907203360        0.5830894493
 H          3.4377417038       -0.6803862208        1.2245699971
 H          2.9990542184        1.6816885003       -0.6709805447
 H         -2.7342489237        2.2745062464       -0.3724280055
 H         -4.4970037130        0.5779018644        0.0043284589
 H         -3.8930325921       -1.7633184942        0.4439640196
 H         -1.5365080547       -2.4608819989        0.5161981215
 H          0.7485579510       -2.6120729879        1.0572435949
 H          2.6489024042       -1.9412907493       -1.2437896956
 H          2.5428505406       -3.5164235028       -0.3131031257
