  19
        -28.27044696
 C          2.9885853133        0.6085134246       -0.0743499176
 C          2.3123468511       -0.4941348224        0.2236927703
 C          0.8809376754       -0.6503243094        0.1235072631
 N          0.3150061361       -1.8740867078        0.0218255418
 N         -0.9509009719       -1.7540309955       -0.0765216014
 N         -1.2734327764       -0.4643013076       -0.0522146609
 C         -2.6489508324       -0.0700847179       -0.0997591732
 C         -0.1523258842        0.2958591487        0.0816369873
 C         -0.1044276193        1.7285435436        0.2336810871
 C         -0.9289961975        2.6092531959       -0.3224363669
 H          4.0598302781        0.6498068748        0.0225509470
 H          2.5074161222        1.4983959531       -0.4438304560
 H          2.8267953642       -1.3911991827        0.5398294204
 H         -3.2468623388       -0.9332153304        0.1891407901
 H         -2.9331263226        0.2313275379       -1.1103056388
 H         -2.8264829407        0.7565305989        0.5885536557
 H          0.7086025522        2.0722029020        0.8612244325
 H         -1.7211176706        2.3270585423       -0.9937188546
 H         -0.8121732844        3.6644526762       -0.1455874779
