20
 energy: -35.487099119203 gnorm: 0.000036462024 xtb: 6.4.1 (23d549d)
C        -2.52596377520000    2.52595332220000    0.17558739610000
C        -2.34219986340000    1.27225839700000   -0.21903695390000
C        -1.09181280910000    0.55134242230000   -0.09709614070000
C         0.20488842570000    1.11362499870000   -0.04684527010000
C         1.09396707500000    0.06260624330000   -0.01758806420000
C         2.56511714240000    0.01102135650000    0.02926642190000
O         3.20032064520000   -1.00527339920000    0.03437659680000
O         3.17445431200000    1.21592817390000    0.06637457420000
O         0.41830921700000   -1.10319595360000   -0.04428766970000
C        -0.89566581400000   -0.82776518410000   -0.08424613450000
C        -1.79880962690000   -1.95153938200000   -0.09326951870000
C        -3.08530238360000   -1.92355162230000    0.24182517550000
H        -3.46927804980000    3.02567536430000    0.04191404800000
H        -1.75040827590000    3.09314507020000    0.66206177240000
H        -3.14920912150000    0.72433679340000   -0.68580491960000
H         0.42519889650000    2.16334740130000   -0.05842592000000
H         2.54986931110000    1.95166170100000    0.05720617370000
H        -1.32509739950000   -2.88371772650000   -0.37171215130000
H        -3.57476412030000   -1.02851124950000    0.58274193620000
H        -3.68513631210000   -2.81581208170000    0.20329235750000
