  27
        -43.59935527
 C         -4.4082071909        0.5059476538       -0.5884719992
 C         -3.5327156849       -0.3495243449       -0.0737330581
 C         -2.0957321707       -0.1371065862        0.0635476760
 C         -1.2363022946       -1.2179891806       -0.0543151779
 C          0.1501116876       -1.0666056889        0.0259856496
 C          1.0716273299       -2.1897324324       -0.0801718059
 C          0.8151062595       -3.3354155631       -0.6989088889
 C          0.6123283745        0.2350522831        0.2528548817
 C          2.0769420862        0.5445841812        0.3337008783
 O          2.6389853376        0.9790033378        1.3030669340
 O          2.6750309912        0.2656060443       -0.8312046935
 C          4.0722108979        0.5100911402       -0.9330273999
 N         -0.1871907309        1.2727785869        0.4305063241
 C         -1.5043895552        1.1189680204        0.3485167231
 N         -2.2352556537        2.2540128556        0.5431302021
 H         -5.4513479410        0.2515668615       -0.6729000568
 H         -4.1155494838        1.4623506046       -0.9867728227
 H         -3.8729163303       -1.3284678406        0.2440643641
 H         -1.6536198042       -2.2018876117       -0.2136790910
 H          2.0373120119       -2.0400829374        0.3850322233
 H         -0.1180018141       -3.5233038668       -1.2026911735
 H          1.5423099026       -4.1278540680       -0.7378468085
 H          4.5534424413       -0.4131829538       -1.2557518169
 H          4.4647894177        0.8264001730        0.0354930734
 H          4.2346525548        1.2919345720       -1.6753285182
 H         -1.7080481973        3.0197986650        0.9325140614
 H         -3.1857489471        2.1475981298        0.8585194489
