21
 energy: -34.386969222316 gnorm: 0.000027441481 xtb: 6.4.1 (23d549d)
C         3.50155301440000   -1.13939691300000   -0.38949651350000
C         2.32995059010000   -1.38164268200000    0.18636965680000
C         1.14164136050000   -0.53627367410000    0.12177844030000
C        -0.11181899950000   -1.13076690590000    0.11864835840000
C        -1.28817868730000   -0.38341633780000    0.01637729940000
C        -2.62966704740000   -0.94322769770000   -0.00846791160000
C        -2.94250297610000   -2.23290427070000    0.03775827820000
C        -1.08656840350000    0.99647274990000   -0.06060447470000
F        -2.14594878470000    1.81679638580000   -0.17493230840000
N         0.07013215820000    1.60405702720000   -0.00910096510000
C         1.18280613060000    0.87830306390000    0.08260899410000
N         2.34076086770000    1.59157576790000    0.12393663910000
H         4.31755387320000   -1.83701753330000   -0.30461539160000
H         3.67681019960000   -0.27228390430000   -1.00301170490000
H         2.18976310830000   -2.30932340390000    0.72903377130000
H        -0.17301870810000   -2.20694634100000    0.17845992160000
H        -3.42068797720000   -0.20756519010000   -0.07294350000000
H        -2.20290794130000   -3.01287710610000    0.09894587150000
H        -3.96822067680000   -2.55695921770000    0.01404385820000
H         2.21972816240000    2.58010898220000    0.27552159800000
H         3.14854707990000    1.15368925130000    0.53515086390000
