  41
        -58.14177945
 C          5.2437042279       -2.2360833966       -0.8213692953
 C          4.0460936533       -2.2281628272       -0.2497466293
 C          3.1758599089       -1.0720309984       -0.0591208752
 C          3.5862934239        0.2317228220       -0.3248910813
 C          2.7248439734        1.3020817188       -0.1099713321
 C          3.2081357475        2.6516297437       -0.3865757528
 C          2.6024919076        3.7952894227       -0.0919857099
 C          1.4310479014        1.0574814024        0.3463108993
 C          0.9848175725       -0.2368537993        0.6141653335
 N         -0.2746824157       -0.5013026872        1.1431157898
 C         -1.0421121195       -1.6211070893        0.6440444743
 C         -1.8545754767       -1.2261576657       -0.5953252668
 C         -2.7922916860       -0.0569164267       -0.2624321178
 C         -1.9812530166        1.1010848503        0.3351704938
 C         -1.1534649018        0.5822278349        1.5165075460
 O         -3.7859648135       -0.5103008347        0.6477215606
 C         -5.0464055699       -0.1121572038        0.1621284459
 C         -4.8121945980       -0.0055707610       -1.3457092924
 O         -3.4674038315        0.4072108368       -1.4224284843
 C          1.8873740984       -1.2866918124        0.4183785710
 H          5.8110164460       -3.1458550915       -0.9208032681
 H          5.7071552577       -1.3487180662       -1.2168519492
 H          3.6361015652       -3.1632122634        0.1140371483
 H          4.5857303550        0.4230929370       -0.6828267647
 H          4.1761158328        2.6872417958       -0.8723972820
 H          1.6483634107        3.8425598212        0.4046685029
 H          3.0497402762        4.7439709563       -0.3355578593
 H          0.7708077253        1.8974516063        0.4751349145
 H         -1.7327064031       -1.9385502981        1.4313615923
 H         -0.3885136739       -2.4549300450        0.3960773041
 H         -2.4479875178       -2.0731665636       -0.9413430862
 H         -1.1877499809       -0.9090637669       -1.3986540887
 H         -2.6645352648        1.8851259519        0.6639818295
 H         -1.3420791396        1.4998135025       -0.4526112310
 H         -1.8458595575        0.1893286257        2.2691499224
 H         -0.5758732460        1.3852263362        1.9750273332
 H         -5.3318003095        0.8611755026        0.5848122223
 H         -5.7797751556       -0.8675026182        0.4442858679
 H         -5.4314965334        0.7435022058       -1.8383367760
 H         -4.9447303289       -0.9804766517       -1.8347589774
 H          1.5936302840       -2.2982391522        0.6550805145
