  45
        -51.80527635
 C         -5.9736598690        2.9045867370        0.5095561246
 C         -4.8839553488        1.9938413363       -0.0433566014
 C         -3.6678650159        1.9528559938        0.8789639905
 C         -2.5991652174        0.9483886298        0.4446781948
 C         -1.9471360883        1.2323313619       -0.9109385485
 C         -1.1317398433        2.5265255949       -0.9680428614
 C          0.1914449570        2.4631671692       -0.2020278391
 C          1.2623993101        1.6708612081       -0.9492677967
 C          2.5709722482        1.5403665565       -0.1695341229
 C          2.4771027558        0.5757057589        1.0210437402
 C          2.0792135637       -0.8027873594        0.5905400640
 C          0.7494775919       -1.2935468092        0.7086766782
 C          0.5741914736       -2.5467439403        0.2240003889
 C         -0.6705726529       -3.3590710790        0.1756726084
 S          2.0698845079       -3.1760372130       -0.3976108631
 C          2.9140096334       -1.7097676678        0.0114276779
 C          4.3637477244       -1.5878065963       -0.3034856227
 H         -6.8298797125        2.9296865970       -0.1607187777
 H         -5.5991473634        3.9196601724        0.6252267434
 H         -6.3100964933        2.5525519219        1.4826417136
 H         -4.5881734795        2.3540738109       -1.0299621008
 H         -5.2810811170        0.9827471253       -0.1616883740
 H         -4.0024487203        1.6779296268        1.8831488672
 H         -3.2337286462        2.9519958316        0.9475108652
 H         -3.0542735784       -0.0450667315        0.4010978073
 H         -1.8277699770        0.9181296416        1.2173600288
 H         -2.7252626707        1.2733657174       -1.6750134408
 H         -1.2983965318        0.3899226716       -1.1601020317
 H         -1.7350588025        3.3464482583       -0.5751891587
 H         -0.9163832631        2.7578313915       -2.0143707861
 H          0.0198044669        2.0235174616        0.7802245758
 H          0.5589681376        3.4805598049       -0.0437025546
 H          1.4679395343        2.1746858287       -1.8974335778
 H          0.8920747270        0.6715280909       -1.1823711831
 H          2.8778777403        2.5241481384        0.1940069134
 H          3.3474106182        1.1779276771       -0.8463925069
 H          1.7473879349        0.9478411643        1.7411610360
 H          3.4490236380        0.5430028518        1.5202910077
 H         -0.0489381984       -0.7211467177        1.1468726330
 H         -1.4947061056       -2.7960787525        0.6080005569
 H         -0.5481053941       -4.2879465702        0.7325090865
 H         -0.9229131235       -3.6181149031       -0.8526386767
 H          4.8532195659       -2.5563772331       -0.2228475856
 H          4.8438151550       -0.8909750267        0.3809069294
 H          4.5099745994       -1.2219090257       -1.3212798644
