  29
        -37.51627887
 C          2.6882971017        2.7526886654        0.0054045369
 C          2.5961309994        1.4273586218       -0.0066491501
 C          1.3619905302        0.6792503552       -0.0018415706
 C          0.0621685606        1.1568932752        0.0004595832
 N         -0.7606728210        0.0915870067        0.0090306138
 C         -2.2159206948        0.1126940680       -0.0007979788
 C         -2.6883033589        0.7475341678       -1.3130991541
 C         -2.7189392590       -1.3252820236        0.0983631322
 C         -2.7100082622        0.9257987076        1.1998264241
 N         -0.0880892232       -1.0495740775        0.0088822014
 C          1.2030981355       -0.7369393600        0.0029763479
 C          2.2366638497       -1.7467033914        0.0010966837
 C          1.9938065606       -3.0523178961       -0.0016951570
 H          3.6422083636        3.2512535927        0.0013794059
 H          1.8191281639        3.3881356652        0.0202905193
 H          3.5006083272        0.8333906584       -0.0202303402
 H         -0.3055598529        2.1622005305       -0.0045561030
 H         -2.3091031103        0.1808924853       -2.1604754567
 H         -2.3364212321        1.7728780072       -1.3987949324
 H         -3.7742201129        0.7510099097       -1.3548685103
 H         -2.3456036962       -1.9114947478       -0.7358914151
 H         -3.8053868698       -1.3379617264        0.0876520815
 H         -2.3653192011       -1.7840995782        1.0171271960
 H         -2.3958200055        1.9640553198        1.1282650354
 H         -2.3160318460        0.5083088321        2.1236774407
 H         -3.7956069370        0.8992639085        1.2421503572
 H          3.2537498543       -1.3777757673        0.0010668252
 H          0.9831178492       -3.4213889818       -0.0016791348
 H          2.7880284811       -3.7790704304       -0.0038968535
  29
        -37.51504433
 C          2.8510766220        2.3452785683       -0.3943291572
 C          2.5907397685        1.0457381689       -0.4714938756
 C          1.3026634178        0.4463889308       -0.2035295420
 C          0.0587954986        1.0521119213       -0.2732147432
 N         -0.8675418327        0.1077121391       -0.0316881708
 C         -2.3203673994        0.2055445299       -0.0170701437
 C         -2.7628523087        1.6615264828       -0.1327714642
 C         -2.8524934276       -0.6111852310       -1.1992444323
 C         -2.8120369802       -0.3950569882        1.3028086318
 N         -0.3096060646       -1.0774578678        0.1863029143
 C          1.0049327804       -0.9110597569        0.1005029891
 C          1.8862100758       -2.0344561612        0.3367306105
 C          3.1391517683       -1.9559974866        0.7671735470
 H          3.8245047653        2.7417688659       -0.6269010640
 H          2.1058277967        3.0593427571       -0.0858933556
 H          3.3692063535        0.3550528366       -0.7686121107
 H         -0.1910860394        2.0674673417       -0.4983019107
 H         -2.4639750375        2.0885815148       -1.0873479138
 H         -2.3431505723        2.2596297729        0.6731272713
 H         -3.8465918186        1.7105904597       -0.0648049785
 H         -2.4986648865       -0.1928322226       -2.1393879461
 H         -3.9389689376       -0.6085972726       -1.2020010854
 H         -2.4989859104       -1.6357577118       -1.1205195559
 H         -2.4547005846        0.1953779080        2.1436935450
 H         -2.4304140434       -1.4070441719        1.4041146509
 H         -3.8979885798       -0.4170988248        1.3256246501
 H          1.4229328160       -2.9989490961        0.1738482131
 H          3.6121463521       -1.0160278245        0.9945831491
 H          3.7322157454       -2.8404520478        0.9280268247
  29
        -37.51493799
 C          2.8071996434        2.3826127338       -0.2202220127
 C          2.5741196889        1.1368175760        0.1745754006
 C          1.2939420840        0.4706833625        0.0833994283
 C          0.0395947191        1.0532176237        0.0349896417
 N         -0.8716271668        0.0618390711        0.0504991356
 C         -2.3189264659        0.2032993324       -0.0063260398
 C         -2.6979180425        0.8072432493       -1.3628058239
 C         -2.9446385519       -1.1808011603        0.1468634893
 C         -2.7769027669        1.1154164773        1.1360577690
 N         -0.2940620658       -1.1297499430        0.0991762567
 C          1.0184151275       -0.9254389698        0.1144328339
 C          1.9167902877       -2.0596449344        0.1302019383
 C          3.1638322345       -2.0653690675       -0.3241289617
 H          3.7755969747        2.8394740348       -0.1091158119
 H          2.0432717332        2.9881234459       -0.6787360838
 H          3.3700857857        0.5511571377        0.6158155708
 H         -0.2368825774        2.0874315639        0.0165128231
 H         -2.3479216560        0.1658766574       -2.1684579257
 H         -2.2529926786        1.7916936691       -1.4875865318
 H         -3.7776297076        0.9039992775       -1.4390391586
 H         -2.5948537320       -1.8400764938       -0.6417496784
 H         -4.0273263486       -1.1041637662        0.0966419668
 H         -2.6617173346       -1.6174289003        1.1003258657
 H         -2.3822877570        2.1216128096        1.0196253929
 H         -2.4391807521        0.7198418229        2.0912953834
 H         -3.8620249114        1.1735617004        1.1487776623
 H          1.4710306572       -2.9668682894        0.5169132281
 H          3.6193752177       -1.1969339325       -0.7682549208
 H          3.7694093551       -2.9550781595       -0.2851750324
  29
        -37.51455194
 C          3.5676153539        1.4635814838       -0.5849331924
 C          2.3541577394        1.8088121755       -0.1727435456
 C          1.2166539074        0.9225444393       -0.0518474608
 C         -0.1110092165        1.2973185971       -0.1719269648
 N         -0.8599718154        0.1879476027       -0.0378704058
 C         -2.3077660282        0.0325150666       -0.0443259184
 C         -2.9839955326        1.3162244594       -0.5181638788
 C         -2.6454758885       -1.1241858608       -0.9884370778
 C         -2.7449428742       -0.3076850941        1.3845434476
 N         -0.1079035450       -0.8825772264        0.1878098203
 C          1.1571112446       -0.4797332853        0.1832844282
 C          2.2463397456       -1.3902856428        0.4620485747
 C          2.1399436054       -2.7111224385        0.3878273670
 H          4.3641777490        2.1854741709       -0.6500340854
 H          3.8055506746        0.4590906391       -0.8897046343
 H          2.1476395279        2.8440229886        0.0754243805
 H         -0.5275028769        2.2652581142       -0.3600461265
 H         -2.6254294719        1.6014607854       -1.5048385055
 H         -2.8062325417        2.1342366070        0.1761599208
 H         -4.0567740026        1.1521752980       -0.5791303301
 H         -2.3581813619       -0.8767836182       -2.0080153767
 H         -3.7116588687       -1.3313927604       -0.9643019775
 H         -2.1002471858       -2.0119113752       -0.6812580451
 H         -2.4987777458        0.5081199767        2.0612898392
 H         -2.2275681888       -1.2031216308        1.7186601733
 H         -3.8169401563       -0.4809066577        1.4210442667
 H          3.1762550341       -0.9236133055        0.7581260762
 H          1.2150592350       -3.1728487548        0.0886417819
 H          2.9645533679       -3.3630176702        0.6208437124
  29
        -37.51275748
 C          3.5227275752        1.1596247116       -0.7419838458
 C          2.3876557041        1.5280095413       -0.1637363930
 C          1.1988070435        0.7077050578       -0.0316653312
 C         -0.0928086887        1.2062641222       -0.0719085987
 N         -0.9383851711        0.1619318024       -0.0211449921
 C         -2.3938891410        0.1286095015       -0.0345458634
 C         -2.9634484251        1.5381916358       -0.1653445529
 C         -2.8258800982       -0.7334935511       -1.2244645757
 C         -2.8552819093       -0.5139741044        1.2772797894
 N         -0.2787955080       -0.9868138350        0.0647937799
 C          1.0179717143       -0.6998106446        0.0702118251
 C          1.9587275548       -1.7889943051        0.2475379621
 C          3.1571811153       -1.6961163756        0.8074887199
 H          4.3541779942        1.8380224378       -0.8320306981
 H          3.6590427030        0.1718360063       -1.1478330120
 H          2.2743266734        2.5430893064        0.2008548119
 H         -0.4213161971        2.2218635018       -0.1531260953
 H         -2.6319728639        2.0087280757       -1.0883775645
 H         -2.6683634352        2.1587146797        0.6778847096
 H         -4.0488820616        1.4831146908       -0.1826831289
 H         -2.5093840276       -0.2753040416       -2.1591466397
 H         -3.9064274748       -0.8456306654       -1.2372602418
 H         -2.3654056858       -1.7144065062       -1.1458813666
 H         -2.5571082963        0.0990300682        2.1252957068
 H         -2.3976114843       -1.4940239341        1.3804867328
 H         -3.9363781459       -0.6215229079        1.2856749395
 H          1.5687738579       -2.7516881088       -0.0572942147
 H          3.5526457309       -0.7587668474        1.1597799799
 H          3.7833676733       -2.5624188669        0.9380546644
  29
        -37.51265466
 C          3.4975659546        1.3251301692       -0.4608048499
 C          2.3630173606        1.5285879968        0.1945359084
 C          1.1871046440        0.6810997544        0.1328264709
 C         -0.1121833610        1.1516118620        0.2000472453
 N         -0.9399272383        0.1060888464        0.0119017976
 C         -2.3945229363        0.1323973010       -0.0104582156
 C         -2.8541095909        1.0423431703       -1.1544944945
 C         -2.8985723638       -1.2906616862       -0.2367955624
 C         -2.9000272798        0.6622523490        1.3353277592
 N         -0.2619947926       -1.0184955952       -0.1605851621
 C          1.0299658570       -0.7168703876       -0.0853035642
 C          1.9877653013       -1.8030518047       -0.1525298589
 C          3.1920234034       -1.8143675459        0.4028757029
 H          4.3192974640        2.0177046488       -0.3919604339
 H          3.6430525788        0.4637858113       -1.0901148874
 H          2.2385268108        2.4262040933        0.7902340253
 H         -0.4680222142        2.1516930166        0.3469940005
 H         -2.4559637035        0.6842167909       -2.1011688485
 H         -2.5147850494        2.0640402586       -1.0019867658
 H         -3.9392696490        1.0455719452       -1.2128418381
 H         -2.5206458258       -1.6774328956       -1.1785138701
 H         -3.9849245397       -1.2987196446       -0.2567418138
 H         -2.5502967351       -1.9432365284        0.5583357583
 H         -2.5649411257        1.6825805027        1.5050644067
 H         -2.5314087135        0.0380464260        2.1461857610
 H         -3.9865266380        0.6502050626        1.3539345253
 H          1.6062289980       -2.6837736651       -0.6529871768
 H          3.5806596002       -0.9687912322        0.9441897296
 H          3.8301390372       -2.6794085267        0.3386363778
  29
        -37.51247437
 C          3.5177788878        1.2726575211        0.5427077973
 C          2.3710568677        1.5416878240       -0.0662939962
 C          1.1908380624        0.6982923717       -0.0608397789
 C         -0.1060739365        1.1816526661       -0.0684536613
 N         -0.9389961667        0.1309814511        0.0517614894
 C         -2.3944143468        0.1278038624        0.0195860130
 C         -2.8387475558        0.0696483136       -1.4466968482
 C         -2.8826743568       -1.1111723175        0.7694722554
 C         -2.9315293128        1.3922657969        0.6921833755
 N         -0.2659207416       -1.0103065204        0.1064609358
 C          1.0266509684       -0.7119455919        0.0384457584
 C          1.9781722265       -1.8053573666        0.0003712438
 C          3.1699941766       -1.7785434134       -0.5805570521
 H          4.3420982851        1.9652720330        0.5214050362
 H          3.6711763272        0.3556237487        1.0854431909
 H          2.2404444351        2.4918633881       -0.5725109668
 H         -0.4519703832        2.1934572585       -0.1268885331
 H         -2.4557266510       -0.8344612344       -1.9136975142
 H         -2.4588401424        0.9297437617       -1.9945259641
 H         -3.9234713183        0.0663811734       -1.5115864159
 H         -2.4419899489       -2.0028917652        0.3347064107
 H         -3.9654480792       -1.1787387434        0.7112186463
 H         -2.5870797251       -1.0592306653        1.8143016317
 H         -2.7240159761        2.2784654007        0.0977488378
 H         -2.4875526129        1.5175030598        1.6773529629
 H         -4.0091146158        1.3101373660        0.8075120396
 H          1.6020675321       -2.7207699829        0.4388879315
 H          3.5518511663       -0.8947797700       -1.0624900068
 H          3.8042667416       -2.6486301297       -0.5980911962
