29
 energy: -51.517932502520 gnorm: 0.000029477215 xtb: 6.5.0 (unknown)
C           -0.04200987370000        4.86378409130000        0.21412643190000
C           -0.94251536680000        3.88881120460000        0.21788851750000
C           -0.67087186350000        2.45911819190000        0.11069903560000
C           -1.74142926770000        1.56693060540000        0.11325731100000
C           -1.55723289810000        0.18742904030000        0.01415858370000
C           -2.74100234440000       -0.65979727490000        0.02881863330000
C           -2.80870175960000       -1.98157014040000       -0.02740939270000
F           -1.81105765040000       -2.85099556910000       -0.10992803820000
F           -3.96040210140000       -2.64927087580000       -0.00488996330000
C           -0.26039242450000       -0.31189178280000       -0.09391151920000
C            0.81690339370000        0.56655627760000       -0.09802393280000
C            2.21767362740000        0.07770035130000       -0.20821891670000
O            3.18487103770000        0.79881744030000       -0.16012112950000
O            2.28213724330000       -1.24611203480000       -0.38019320830000
C            3.58285766860000       -1.82505271820000       -0.47892379530000
C            4.17711611720000       -2.09091006540000        0.89680422710000
C            0.61655879100000        1.93721344190000        0.00535970050000
H           -0.33705145280000        5.89557930750000        0.29778689880000
H            1.01494819380000        4.68092386010000        0.12828910550000
H           -1.99215717350000        4.14155042200000        0.30600462740000
H           -2.74681567660000        1.95615408440000        0.19552389060000
H           -3.69438734220000       -0.15567339050000        0.09632041170000
H           -0.07166518720000       -1.36842331410000       -0.17477358900000
H            4.23021631660000       -1.14850306910000       -1.04679233320000
H            3.43722894950000       -2.75527189880000       -1.03200489540000
H            4.32457590480000       -1.15191785240000        1.42476831750000
H            5.13637373410000       -2.58891998350000        0.78925109070000
H            3.51035619090000       -2.72314326160000        1.47832144830000
H            1.48452454950000        2.57689795590000        0.00076772780000
