  21
        -30.95775474
 C          2.7142161979       -2.5245854520        0.1640712233
 C          2.5007024407       -1.2426070084       -0.1029226923
 C          1.2161740373       -0.5499711045       -0.0542730274
 C          1.2062809960        0.8432331240       -0.0865459903
 C          0.0000229982        1.5352064971       -0.0232336349
 C          0.0002959726        2.9498834140       -0.0449744938
 N          0.0009894556        4.0961028455       -0.0625382985
 C         -1.2063458980        0.8457171483        0.0613075362
 C         -1.2164067813       -0.5478167940        0.0718279827
 C         -2.5009563356       -1.2386404860        0.1417463668
 C         -2.7148226130       -2.5274385880       -0.0897255076
 C         -0.0001840057       -1.2258596162        0.0192285010
 H          3.7015599103       -2.9495036770        0.1092407822
 H          1.9280230267       -3.1993438275        0.4570637212
 H          3.3409760218       -0.6125140009       -0.3672930195
 H          2.1339617028        1.3938595491       -0.1495576446
 H         -2.1339568084        1.3981345578        0.1073552916
 H         -3.3407758904       -0.6014482547        0.3900368146
 H         -1.9289939356       -3.2098504035       -0.3654920492
 H         -3.7020087866       -2.9507937516       -0.0216357482
 H         -0.0003447841       -2.3033905437        0.0359941777
