  31
        -45.39467024
 C         -2.4829146681        4.1619936055        0.5037536212
 C         -2.8948804337        2.9008777735        0.5352581739
 C         -2.1010836739        1.7165382647        0.2239721693
 C         -2.7392593978        0.4797662250        0.1642394852
 C         -2.0429405640       -0.6856761239       -0.1446109300
 C         -2.6816511525       -1.9945414664       -0.2329705455
 C         -3.9535874760       -2.2784776585        0.0184834242
 C         -0.6723499031       -0.6020827035       -0.3862205637
 C         -0.0185570397        0.6199526042       -0.3032589664
 O          1.3163160130        0.7672674942       -0.5835915094
 C          2.2036972468       -0.2260524597       -0.2632475282
 C          3.3200987632       -0.3649513517       -1.0823220403
 C          4.2853668000       -1.3058052936       -0.7789335427
 C          4.1473283250       -2.1146575641        0.3369173855
 C          3.0423741460       -1.9668349502        1.1577386219
 C          2.0719449649       -1.0254065325        0.8675978205
 C         -0.7284002960        1.7751267565       -0.0072288145
 H         -3.1475503457        4.9734982584        0.7460656206
 H         -1.4794587884        4.4410534626        0.2325656312
 H         -3.9234902913        2.6925531272        0.8046035368
 H         -3.8011023909        0.4340411924        0.3500933288
 H         -2.0172397257       -2.7961549472       -0.5328045363
 H         -4.6692943379       -1.5355075384        0.3254909104
 H         -4.3300504805       -3.2828485638       -0.0731982461
 H         -0.1147290244       -1.4913367387       -0.6446041477
 H          3.4128244222        0.2739843162       -1.9467215783
 H          5.1478797420       -1.4103386087       -1.4202432271
 H          4.8998667311       -2.8528646213        0.5690380882
 H          2.9339795560       -2.5848439880        2.0368705570
 H          1.2179494343       -0.9013063945        1.5178602707
 H         -0.1905043870        2.7075613617        0.0395476409
