  56
        -64.41485976
 C          0.7045643066       -3.3890611985        2.6037069162
 C          1.3788856606       -2.3198308766        2.2015912833
 C          0.8284215067       -1.2511697273        1.3683232520
 C         -0.1587909246       -1.5402977338        0.4312907600
 C         -0.7200539403       -0.5825169061       -0.4004184563
 C         -1.8264753331       -0.9987231922       -1.3309817115
 C         -3.0616698556       -1.4833723202       -0.5596586204
 C         -3.6351513045       -0.4336331289        0.3923598165
 C         -4.1275410158        0.8499258586       -0.2793366563
 C         -5.2143343009        0.6532594345       -1.3372218572
 C         -6.4912036965        0.0337783365       -0.7812322327
 C         -0.2741032928        0.7368961539       -0.2828266520
 C         -0.7267257563        1.8441886526       -1.1344561568
 C         -0.7127612550        1.8373073558       -2.4589266235
 C          0.6839476448        1.0372822102        0.6830125138
 C          1.2677972429        0.0757927273        1.4891384917
 C          2.3454840941        0.4862346465        2.4532630143
 C          3.7667102943        0.2690411543        1.9054730230
 C          4.0403636341        1.0105292418        0.5926053816
 C          3.7093140618        0.1697875916       -0.6420311997
 C          3.6221949093        0.9947201563       -1.9255375880
 C          4.9427042818        1.6517193007       -2.3101266154
 H          1.1625739738       -4.1481432247        3.2150336471
 H         -0.3323381913       -3.5431713941        2.3557242930
 H          2.4078481908       -2.2042263896        2.5122142460
 H         -0.4813150531       -2.5658868510        0.3261087399
 H         -1.4731008886       -1.8155536458       -1.9669686852
 H         -2.1128973489       -0.1713548532       -1.9766088816
 H         -2.7960209648       -2.3640041682        0.0295513097
 H         -3.8248312417       -1.7912252387       -1.2766222387
 H         -2.8622954074       -0.1622231840        1.1163095537
 H         -4.4578821893       -0.8854709513        0.9504408719
 H         -3.2800751704        1.3600487905       -0.7407273586
 H         -4.5169870303        1.5092670635        0.5011038096
 H         -4.8328468656        0.0331024246       -2.1501766473
 H         -5.4530849809        1.6315894655       -1.7625253297
 H         -6.3169129224       -0.9844570287       -0.4432900026
 H         -7.2636966233        0.0081677703       -1.5468997851
 H         -6.8616114921        0.6168027468        0.0594747851
 H         -1.0157100386        2.7448371873       -0.6041640369
 H         -0.3774759983        0.9805700613       -3.0198533506
 H         -1.0186070383        2.6954800629       -3.0339949630
 H          1.0011007413        2.0667821490        0.7819179902
 H          2.2402617511       -0.0651375032        3.3901944125
 H          2.2276419316        1.5483871902        2.6811436231
 H          3.9509639415       -0.7958308791        1.7524162761
 H          4.4661604439        0.6158121887        2.6704124420
 H          5.0952498832        1.2894599357        0.5575520058
 H          3.4573392582        1.9329215418        0.5693343134
 H          2.7508930545       -0.3289155448       -0.4928609808
 H          4.4704061825       -0.6056641666       -0.7616291436
 H          2.8529733817        1.7613483693       -1.8047810771
 H          3.3028542617        0.3376989391       -2.7382321533
 H          5.2442169499        2.3847946430       -1.5665074991
 H          4.8483719004        2.1592817784       -3.2676942088
 H          5.7283098517        0.9036742214       -2.3951450612
