56
 energy: -64.414859762087 gnorm: 0.000191974629 xtb: 6.4.1 (23d549d)
C         0.70456430660000   -3.38906119850000    2.60370691620000
C         1.37888566060000   -2.31983087660000    2.20159128330000
C         0.82842150670000   -1.25116972730000    1.36832325200000
C        -0.15879092460000   -1.54029773380000    0.43129076000000
C        -0.72005394030000   -0.58251690610000   -0.40041845630000
C        -1.82647533310000   -0.99872319220000   -1.33098171150000
C        -3.06166985560000   -1.48337232020000   -0.55965862040000
C        -3.63515130450000   -0.43363312890000    0.39235981650000
C        -4.12754101580000    0.84992585860000   -0.27933665630000
C        -5.21433430090000    0.65325943450000   -1.33722185720000
C        -6.49120369650000    0.03377833650000   -0.78123223270000
C        -0.27410329280000    0.73689615390000   -0.28282665200000
C        -0.72672575630000    1.84418865260000   -1.13445615680000
C        -0.71276125500000    1.83730735580000   -2.45892662350000
C         0.68394764480000    1.03728221020000    0.68301251380000
C         1.26779724290000    0.07579272730000    1.48913849170000
C         2.34548409410000    0.48623464650000    2.45326301430000
C         3.76671029430000    0.26904115430000    1.90547302300000
C         4.04036363410000    1.01052924180000    0.59260538160000
C         3.70931406180000    0.16978759160000   -0.64203119970000
C         3.62219490930000    0.99472015630000   -1.92553758800000
C         4.94270428180000    1.65171930070000   -2.31012661540000
H         1.16257397380000   -4.14814322470000    3.21503364710000
H        -0.33233819130000   -3.54317139410000    2.35572429300000
H         2.40784819080000   -2.20422638960000    2.51221424600000
H        -0.48131505310000   -2.56588685100000    0.32610873990000
H        -1.47310088860000   -1.81555364580000   -1.96696868520000
H        -2.11289734890000   -0.17135485320000   -1.97660888160000
H        -2.79602096480000   -2.36400416820000    0.02955130970000
H        -3.82483124170000   -1.79122523870000   -1.27662223870000
H        -2.86229540740000   -0.16222318400000    1.11630955370000
H        -4.45788218930000   -0.88547095130000    0.95044087190000
H        -3.28007517040000    1.36004879050000   -0.74072735860000
H        -4.51698703030000    1.50926706350000    0.50110380960000
H        -4.83284686560000    0.03310242460000   -2.15017664730000
H        -5.45308498090000    1.63158946550000   -1.76252532970000
H        -6.31691292240000   -0.98445702870000   -0.44329000260000
H        -7.26369662330000    0.00816777030000   -1.54689978510000
H        -6.86161149210000    0.61680274680000    0.05947478510000
H        -1.01571003860000    2.74483718730000   -0.60416403690000
H        -0.37747599830000    0.98057006130000   -3.01985335060000
H        -1.01860703830000    2.69548006290000   -3.03399496300000
H         1.00110074130000    2.06678214900000    0.78191799020000
H         2.24026175110000   -0.06513750320000    3.39019441250000
H         2.22764193160000    1.54838719020000    2.68114362310000
H         3.95096394150000   -0.79583087910000    1.75241627610000
H         4.46616044390000    0.61581218870000    2.67041244200000
H         5.09524988320000    1.28945993570000    0.55755200580000
H         3.45733925820000    1.93292154180000    0.56933431340000
H         2.75089305450000   -0.32891554480000   -0.49286098080000
H         4.47040618250000   -0.60566416660000   -0.76162914360000
H         2.85297338170000    1.76134836930000   -1.80478107710000
H         3.30285426170000    0.33769893910000   -2.73823215330000
H         5.24421694990000    2.38479464300000   -1.56650749910000
H         4.84837190040000    2.15928177840000   -3.26769420880000
H         5.72830985170000    0.90367422140000   -2.39514506120000
