  39
        -70.35855601
 F          4.0384665868       -1.6222162449        0.1358585172
 C          3.9376009849       -0.3527609714        0.5802288034
 F          3.8607326898       -0.4403261891        1.9211997754
 F          5.1082686927        0.2356848967        0.3049596962
 C          2.7564433318        0.3569667026       -0.0134288338
 C          1.4897001672       -0.0831824515        0.3451526579
 C          0.3624571709        0.5106728317       -0.2129146430
 N         -0.9286464668        0.0716023511        0.1036928762
 C         -1.8115133649        1.0984866205        0.4937839551
 C         -1.9090213932        2.2570756309       -0.2730498189
 S         -0.8824881815        2.4343601556       -1.7124072742
 C         -2.7693880969        3.2809233207        0.0879405950
 C         -3.5368628872        3.1591399421        1.2318154188
 C         -3.4087826101        2.0351198817        2.0321171317
 C         -2.5417547746        1.0183307935        1.6762549681
 C         -1.3347934556       -1.2583653502       -0.0401281131
 C         -2.6583667456       -1.6327614891        0.1926421988
 C         -3.0624936157       -2.9433385314        0.0256228001
 C         -2.1785758454       -3.9271233618       -0.3924635062
 C         -2.6057208864       -5.3547127688       -0.5443354218
 C         -0.8748831384       -3.5404407295       -0.6764064332
 C         -0.4569599735       -2.2353094874       -0.5140207913
 C          0.5380708703        1.6058170654       -1.0658333957
 C          1.8068886109        2.0447736297       -1.4107915721
 C          2.9246518362        1.4084699958       -0.9044787357
 H          1.3773234883       -0.8884456369        1.0549913369
 H         -2.8335848020        4.1595918727       -0.5347805396
 H         -4.2186841725        3.9486008716        1.5069518437
 H         -3.9814434823        1.9510187783        2.9430322179
 H         -2.4242379065        0.1518626827        2.3090814943
 H         -3.3914031850       -0.8962198950        0.4810528258
 H         -4.0945230264       -3.1984576228        0.2197499876
 H         -3.6891404357       -5.4411333260       -0.5180081635
 H         -2.1940404960       -5.9585458016        0.2649510457
 H         -2.2423605207       -5.7667476838       -1.4840496472
 H         -0.1688413250       -4.2730623106       -1.0398390969
 H          0.5544922507       -1.9791509264       -0.7869406692
 H          1.9094694092        2.8774831114       -2.0883522404
 H          3.9137677595        1.7340513287       -1.1833442199
