  29
        -37.51504433
 C          2.8510766220        2.3452785683       -0.3943291572
 C          2.5907397685        1.0457381689       -0.4714938756
 C          1.3026634178        0.4463889308       -0.2035295420
 C          0.0587954986        1.0521119213       -0.2732147432
 N         -0.8675418327        0.1077121391       -0.0316881708
 C         -2.3203673994        0.2055445299       -0.0170701437
 C         -2.7628523087        1.6615264828       -0.1327714642
 C         -2.8524934276       -0.6111852310       -1.1992444323
 C         -2.8120369802       -0.3950569882        1.3028086318
 N         -0.3096060646       -1.0774578678        0.1863029143
 C          1.0049327804       -0.9110597569        0.1005029891
 C          1.8862100758       -2.0344561612        0.3367306105
 C          3.1391517683       -1.9559974866        0.7671735470
 H          3.8245047653        2.7417688659       -0.6269010640
 H          2.1058277967        3.0593427571       -0.0858933556
 H          3.3692063535        0.3550528366       -0.7686121107
 H         -0.1910860394        2.0674673417       -0.4983019107
 H         -2.4639750375        2.0885815148       -1.0873479138
 H         -2.3431505723        2.2596297729        0.6731272713
 H         -3.8465918186        1.7105904597       -0.0648049785
 H         -2.4986648865       -0.1928322226       -2.1393879461
 H         -3.9389689376       -0.6085972726       -1.2020010854
 H         -2.4989859104       -1.6357577118       -1.1205195559
 H         -2.4547005846        0.1953779080        2.1436935450
 H         -2.4304140434       -1.4070441719        1.4041146509
 H         -3.8979885798       -0.4170988248        1.3256246501
 H          1.4229328160       -2.9989490961        0.1738482131
 H          3.6121463521       -1.0160278245        0.9945831491
 H          3.7322157454       -2.8404520478        0.9280268247
