  26
        -39.88779695
 C         -4.4307088853        0.3172028789        0.6876435362
 C         -3.6236324658       -0.6599364012        0.2928049915
 C         -2.2043075416       -0.5469417766       -0.0209711307
 C         -1.5172813987       -1.6790189809       -0.4601866577
 C         -0.1725500171       -1.6103553806       -0.7685846780
 C          0.5327577540       -0.4179128355       -0.6542235187
 C          1.9985989647       -0.3800208343       -0.9853869110
 C          2.8655984768       -0.4281854928        0.2717800191
 O          3.8691650321        0.2066591935        0.4115119521
 O          2.4302784730       -1.2691602363        1.2205557629
 C         -0.1377564781        0.7289631143       -0.2018762301
 C          0.5778593035        1.9959166623       -0.0306601481
 C          0.0442622401        3.1897231184       -0.2475820354
 C         -1.4910264195        0.6434077151        0.1019964929
 H         -5.4708107172        0.1325352829        0.8941057887
 H         -4.0988192583        1.3323126149        0.8218339646
 H         -4.0284486413       -1.6580776792        0.1760636512
 H         -2.0416895346       -2.6180332683       -0.5621230752
 H          0.3350068172       -2.4980463410       -1.1237938969
 H          2.2643849907        0.5131152787       -1.5511116812
 H          2.2690136545       -1.2539490073       -1.5856332796
 H          1.5826893744       -1.6759850765        0.9801044670
 H          1.6079272330        1.9221248168        0.2916801812
 H         -0.9670762079        3.3106685224       -0.5996306341
 H          0.6090745015        4.0939148874       -0.1004035056
 H         -1.9887636296        1.5273061497        0.4668738388
