  22
        -29.88223289
 C         -3.7346493251       -0.4082376138       -0.0930796943
 C         -2.8963481815        0.6196047678       -0.0393011286
 C         -1.4470509811        0.4746565861        0.0034171346
 C         -0.6166460991        1.5958801131        0.0638412200
 C          0.7494579338        1.4094764309        0.1195667306
 C          1.2789667259        0.1192577943        0.1044545645
 C          2.7159351659       -0.1190652880        0.1692517204
 C          3.6430543290        0.7111987067       -0.2915315063
 C          0.3606906802       -0.9463437138        0.0321016441
 C          0.8102295667       -2.3752931941       -0.0161407296
 N         -0.9427190385       -0.7589669824       -0.0138415352
 H         -4.8024571262       -0.2754007624       -0.1239090849
 H         -3.3564902986       -1.4156694942       -0.1073498273
 H         -3.2628888614        1.6380449787       -0.0244431749
 H         -1.0408059300        2.5888703881        0.0777516331
 H          1.4118022862        2.2598018431        0.1965855402
 H          3.0186493843       -1.0554466580        0.6187122145
 H          3.3937810714        1.6390187140       -0.7787895443
 H          4.6923712659        0.4826616057       -0.2157574077
 H          1.3038659390       -2.6532175724        0.9144688396
 H          1.5089906802       -2.5321931775       -0.8357146422
 H         -0.0578046761       -3.0128968114       -0.1557877178
  22
        -29.88162518
 C         -3.8038448672        0.9983746973       -0.0631486002
 C         -2.9315017464       -0.0021686361       -0.0637695844
 C         -1.4795731687        0.1123428286       -0.0106158124
 C         -0.7882147397        1.3245446706        0.0394228270
 C          0.5896104752        1.2996792413        0.1017212709
 C          1.2715820134        0.0825154093        0.1040615537
 C          2.7265064845        0.0197770324        0.1741413992
 C          3.5481532157        0.9500359050       -0.2957105484
 C          0.4883816238       -1.0854206315        0.0425467928
 C          1.1029820898       -2.4518179466        0.0145797646
 N         -0.8284683632       -1.0517431154       -0.0106255082
 H         -4.8639890269        0.8158071802       -0.1054988558
 H         -3.5066656738        2.0326459604       -0.0206946320
 H         -3.2763558259       -1.0264953323       -0.1058692168
 H         -1.3170916125        2.2640796743        0.0395326077
 H          1.1455500709        2.2238306001        0.1699005678
 H          3.1382887803       -0.8684672410        0.6344481879
 H          3.1903233650        1.8352421264       -0.7945473769
 H          4.6171130658        0.8507548096       -0.2152130776
 H          1.8172973114       -2.5366635011       -0.8023235244
 H          0.3160207549       -3.1887630058       -0.1165733460
 H          1.6238885525       -2.6565868465        0.9493458908
  22
        -29.87958032
 C         -3.8902608594        0.7784504916        0.1689033187
 C         -2.9294818142       -0.1343409462        0.0949281066
 C         -1.4974498036        0.1206133462       -0.0003481812
 C         -0.9296136392        1.3939686318       -0.0854896606
 C          0.4430571648        1.4955598555       -0.1543363328
 C          1.2457141441        0.3520506873       -0.1213964940
 C          2.6944644289        0.5273362421       -0.1677792984
 C          3.6034670855       -0.1978694791        0.4700506962
 C          0.5803184743       -0.8865617443       -0.0792653285
 C          1.2900173224       -2.2040487581       -0.1416545739
 N         -0.7361969681       -0.9718368012       -0.0213936106
 H         -4.9265721707        0.4952719856        0.2392453492
 H         -3.6917313838        1.8369647712        0.1646168070
 H         -3.1747597658       -1.1876686566        0.1085525716
 H         -1.5457958743        2.2783654443       -0.1046386605
 H          0.9126933815        2.4681469648       -0.2194820604
 H          3.0191509701        1.3790960190       -0.7554895405
 H          3.3436564817       -1.0185425274        1.1144867662
 H          4.6531704858        0.0306362581        0.3916336490
 H          2.1913994658       -2.1372545155       -0.7456673066
 H          0.6139509154       -2.9448562574       -0.5605929730
 H          1.5636503439       -2.5330001854        0.8599310190
