  26
        -39.88483944
 C         -4.7198215052       -1.0641680651        0.1835781765
 C         -3.7477133859       -0.2092741421        0.4771044153
 C         -2.3468355414       -0.3197836420        0.0892557727
 C         -1.8194861198       -1.4332336611       -0.5657709384
 C         -0.4802331066       -1.4808666329       -0.8930634891
 C          0.3809032084       -0.4251479157       -0.6102258058
 C          1.8400429629       -0.5489318695       -0.9593111958
 C          2.7847990477       -0.1652785831        0.1722989470
 O          3.8556459722        0.3379430255       -0.0001023061
 O          2.3634309867       -0.4994464383        1.4029667666
 C         -0.1337746800        0.7065159823        0.0372457565
 C          0.6849404278        1.8752697619        0.3937706611
 C          1.4927303022        2.5312035393       -0.4235594265
 C         -1.4788375991        0.7268492004        0.3906213520
 H         -5.7305815694       -0.8947564176        0.5125069658
 H         -4.5577458752       -1.9577661050       -0.3943751361
 H         -3.9844286922        0.6765950967        1.0538924109
 H         -2.4519394478       -2.2722933363       -0.8076050173
 H         -0.0884292487       -2.3600766767       -1.3856451116
 H          2.0989031467        0.0511215024       -1.8328782789
 H          2.0661609074       -1.5905454087       -1.2108038032
 H          1.4668403074       -0.8667195049        1.3892296694
 H          0.5432712659        2.2324650418        1.4069627953
 H          1.6316612841        2.2471423694       -1.4522712909
 H          2.0394946997        3.3976891772       -0.0952335142
 H         -1.8625468729        1.5990604632        0.9018123930
