29
 energy: -51.518247152511 gnorm: 0.000066547188 xtb: 6.5.0 (unknown)
C           -1.60965019790000        3.89618166310000       -0.02581178150000
C           -0.46869747460000        3.21810210000000       -0.03928810140000
C           -0.31469967750000        1.76712141440000        0.00965960650000
C           -1.40276097080000        0.89604890930000       -0.02403362820000
C           -1.22833668410000       -0.48571912400000        0.02618272340000
C           -2.33295731870000       -1.43368632020000       -0.00516261300000
C           -3.63246401970000       -1.18510170850000       -0.06588571800000
F           -4.23868519640000       -0.00449778830000       -0.11345485290000
F           -4.55656819660000       -2.14204555290000       -0.08816234490000
C            0.06616640730000       -0.99668934650000        0.10941358160000
C            1.16068715430000       -0.14202782100000        0.14202991010000
C            2.51514296940000       -0.74765103280000        0.22848195500000
O            2.71837490720000       -1.93728499780000        0.25345384170000
O            3.48298965720000        0.17470718980000        0.28775870850000
C            4.82611230810000       -0.30337884080000        0.35782779870000
C            5.36973228030000       -0.64065308710000       -1.02322967250000
C            0.97110976410000        1.23314243440000        0.09070340750000
H           -1.61786511730000        4.97190242510000       -0.06282308200000
H           -2.57436538730000        3.42154578030000        0.02535075980000
H            0.46586068950000        3.76363270750000       -0.08244611010000
H           -2.39528826990000        1.30599599370000       -0.09566943920000
H           -2.06601915500000       -2.48003126660000        0.02717828930000
H            0.24215361920000       -2.06104177150000        0.14919778980000
H            4.85387574250000       -1.18899693570000        1.00130898020000
H            5.39240373750000        0.50960819500000        0.81724777540000
H            4.79976679060000       -1.45924216100000       -1.45578074450000
H            6.41030994540000       -0.94102315050000       -0.94138099860000
H            5.29899887530000        0.22466742270000       -1.67809475980000
H            1.82902371030000        1.88711802190000        0.11621981860000
