20
 energy: -34.896884699472 gnorm: 0.000066801664 xtb: 6.4.1 (23d549d)
C         4.38526343490000    1.61624766710000   -0.03577725710000
C         3.06553573180000    1.75106036410000    0.00711629010000
C         2.07823741320000    0.67700111130000    0.00923435500000
C         2.42293784390000   -0.67577590910000    0.01493989100000
C         1.44085227040000   -1.64779622870000    0.01588976770000
C         0.10084985190000   -1.30545787830000    0.01104502090000
C        -0.27343959600000    0.03925679110000    0.00647207610000
C        -1.65793020210000    0.48740965420000    0.00222961290000
C        -2.76230155690000   -0.24356339750000   -0.00546907610000
F        -2.87153648260000   -1.56668830940000   -0.01112113480000
F        -3.98474781180000    0.28745570910000   -0.00899133870000
C         0.72622247050000    1.01053799330000    0.00673796700000
H         5.03442154230000    2.47492736200000   -0.03498562620000
H         4.87464608630000    0.65841837770000   -0.07548488340000
H         2.64287254110000    2.74802251540000    0.04079652740000
H         3.46047353110000   -0.96981734320000    0.02117710160000
H         1.72128045140000   -2.69082574600000    0.02095564750000
H        -0.64436767250000   -2.08329594160000    0.01193490360000
H        -1.81833953790000    1.55615481800000    0.00497218450000
H         0.44377751320000    2.05433985760000    0.00341561360000
