  25
        -37.88600011
 C          3.9220175143        0.1332139402        0.5727887948
 C          3.0692219252       -0.4282508315       -0.2738185274
 C          1.6034969423       -0.3467279492       -0.2025282132
 C          0.8987019642       -1.5329338610       -0.3089698060
 C         -0.4820244482       -1.5073788994       -0.1713760304
 N         -1.3980152660       -2.5319459801       -0.1747933110
 C         -2.5419351584       -1.9695544618        0.0413470080
 N         -2.4662500167       -0.6119671850        0.1832445843
 C         -1.1437671384       -0.2798538508        0.0475351664
 C         -0.4686009583        0.9397319697        0.1179867501
 C         -1.1754884449        2.1937551121        0.3572938459
 C         -2.3683240965        2.5109237934       -0.1322660253
 C          0.9292326249        0.8906761942       -0.0216115418
 N          1.6387721352        2.0626567147       -0.1253975454
 H          4.9859137368       -0.0042942064        0.4769351230
 H          3.5969329189        0.7210424997        1.4171024110
 H          3.4511952856       -1.0651681056       -1.0626168681
 H          1.4148917371       -2.4673005351       -0.4615733887
 H         -3.4743188543       -2.4972897289        0.1016136093
 H         -3.2175376383        0.0206935453        0.3989882710
 H         -0.6753130221        2.9065423986        1.0055535751
 H         -2.8924431441        1.8720238848       -0.8234752366
 H         -2.8472598366        3.4450992458        0.1072620748
 H          1.2211146242        2.9048150785        0.2278603511
 H          2.6403943053        1.9969356756       -0.0768412107
