  80
        -93.64866342
 C         -1.6415266532        4.9599132933       -0.0396014671
 C         -2.6598937300        4.1088405233       -0.7874851262
 C         -3.0164266304        2.8494605195       -0.0025572904
 C         -3.9423125669        1.9206153334       -0.7824660691
 C         -4.2306963637        0.6317605811       -0.0165164498
 C         -5.0886697722       -0.3312532525       -0.8346195707
 C         -5.4323590521       -1.6326579502       -0.1044469316
 C         -4.2275273982       -2.4102676564        0.4271678024
 C         -3.2133405419       -2.7742887047       -0.6545087655
 C         -1.9522051839       -3.4000981975       -0.0524295832
 O         -1.3598061099       -2.6001475951        0.9483315475
 C         -0.8342852595       -1.3797405635        0.6273252577
 C         -0.5224259376       -0.9550225723       -0.6558382859
 C          0.0110627928        0.3054503903       -0.8977683977
 C          0.2888780457        0.7429125406       -2.3051445017
 C          0.2526516112        1.1476909968        0.1854445836
 O          0.7392028342        2.4334294735        0.0020911176
 C          2.1401584051        2.5155133040       -0.1944954620
 C          2.9239845138        2.3117204175        1.1029849500
 C          4.4345189693        2.4517635632        0.9138013081
 C          5.0651898788        1.3802568804        0.0217545303
 C          5.0115890049       -0.0190309516        0.6317775964
 C          5.5549887379       -1.0966451852       -0.3075041675
 C          4.6592857647       -1.4009712533       -1.5115521158
 C          3.2678923709       -1.9376867679       -1.1678976611
 C          3.3004149215       -3.2604764724       -0.4056583904
 C          1.9041830782       -3.8456043723       -0.2364753707
 C         -0.0501026924        0.7195707541        1.4739222906
 C         -0.5932690326       -0.5265078012        1.7158453492
 C         -0.9283779221       -0.9853439126        3.1007812459
 H         -1.3895397013        5.8508996177       -0.6109599185
 H         -0.7345153450        4.3846142931        0.1297136241
 H         -2.0390256546        5.2710852502        0.9243263694
 H         -2.2429234441        3.8192746228       -1.7548109822
 H         -3.5648159831        4.6918855623       -0.9777708257
 H         -3.4934686969        3.1316501620        0.9390994949
 H         -2.0961887675        2.3144771200        0.2391971345
 H         -3.4711597609        1.6694237209       -1.7363239241
 H         -4.8804870025        2.4359424490       -1.0039840484
 H         -4.7421656841        0.8691617889        0.9191806637
 H         -3.2765344866        0.1654522670        0.2342745941
 H         -4.5767330058       -0.5587009140       -1.7719850763
 H         -6.0253925293        0.1671235108       -1.0979612226
 H         -5.9963547961       -2.2725099712       -0.7883179073
 H         -6.0844993093       -1.4001073992        0.7409233420
 H         -4.5845078220       -3.3260336275        0.9053678465
 H         -3.7261168759       -1.8184264310        1.1937857075
 H         -2.9340033994       -1.8746847258       -1.2011822780
 H         -3.6486314699       -3.4832370404       -1.3612752185
 H         -1.2280357182       -3.6396768451       -0.8421333442
 H         -2.2064286485       -4.3264510348        0.4706229424
 H         -0.6894387757       -1.6028451998       -1.5027838888
 H         -0.4747945764        0.3604609645       -2.9794285152
 H          1.2543858390        0.3645231525       -2.6445064138
 H          0.3001429214        1.8287343658       -2.3641994185
 H          2.3159425602        3.5214223211       -0.5870142275
 H          2.4541305303        1.7817807296       -0.9453751466
 H          2.6839057593        1.3275292335        1.5093461438
 H          2.5851132917        3.0573099046        1.8259705860
 H          4.9109380499        2.4153749342        1.8964797338
 H          4.6423561289        3.4343750543        0.4825986770
 H          6.1116178730        1.6458805539       -0.1497710742
 H          4.5700354504        1.3814192832       -0.9489135520
 H          3.9874311407       -0.2694743757        0.9058308273
 H          5.6046015054       -0.0214474301        1.5499845122
 H          5.7077502798       -2.0161497168        0.2601022633
 H          6.5331327777       -0.7799686979       -0.6792982908
 H          5.1709225275       -2.1404683474       -2.1335668571
 H          4.5466117520       -0.4975773675       -2.1150752153
 H          2.7238971694       -2.0897236988       -2.1045490001
 H          2.7067348020       -1.2017310847       -0.5883430552
 H          3.7406214962       -3.1072339155        0.5807702302
 H          3.9299319150       -3.9716401863       -0.9465590782
 H          1.2700514554       -3.1580906129        0.3179947166
 H          1.9450851974       -4.7877436161        0.3056399505
 H          1.4487216121       -4.0300526033       -1.2078298039
 H          0.1275701965        1.3973449179        2.2956948717
 H         -0.7203648498       -0.2052439624        3.8277869692
 H         -0.3498969227       -1.8733108621        3.3518346187
 H         -1.9806843320       -1.2591428524        3.1614461276
