  80
        -93.64866342
 C         -1.6415266532        4.9599132933       -0.0396014671
 C         -2.6598937300        4.1088405233       -0.7874851262
 C         -3.0164266304        2.8494605195       -0.0025572904
 C         -3.9423125669        1.9206153334       -0.7824660691
 C         -4.2306963637        0.6317605811       -0.0165164498
 C         -5.0886697722       -0.3312532525       -0.8346195707
 C         -5.4323590521       -1.6326579502       -0.1044469316
 C         -4.2275273982       -2.4102676564        0.4271678024
 C         -3.2133405419       -2.7742887047       -0.6545087655
 C         -1.9522051839       -3.4000981975       -0.0524295832
 O         -1.3598061099       -2.6001475951        0.9483315475
 C         -0.8342852595       -1.3797405635        0.6273252577
 C         -0.5224259376       -0.9550225723       -0.6558382859
 C          0.0110627928        0.3054503903       -0.8977683977
 C          0.2888780457        0.7429125406       -2.3051445017
 C          0.2526516112        1.1476909968        0.1854445836
 O          0.7392028342        2.4334294735        0.0020911176
 C          2.1401584051        2.5155133040       -0.1944954620
 C          2.9239845138        2.3117204175        1.1029849500
 C          4.4345189693        2.4517635632        0.9138013081
 C          5.0651898788        1.3802568804        0.0217545303
 C          5.0115890049       -0.0190309516        0.6317775964
 C          5.5549887379       -1.0966451852       -0.3075041675
 C          4.6592857647       -1.4009712533       -1.5115521158
 C          3.2678923709       -1.9376867679       -1.1678976611
 C          3.3004149215       -3.2604764724       -0.4056583904
 C          1.9041830782       -3.8456043723       -0.2364753707
 C         -0.0501026924        0.7195707541        1.4739222906
 C         -0.5932690326       -0.5265078012        1.7158453492
 C         -0.9283779221       -0.9853439126        3.1007812459
 H         -1.3895397013        5.8508996177       -0.6109599185
 H         -0.7345153450        4.3846142931        0.1297136241
 H         -2.0390256546        5.2710852502        0.9243263694
 H         -2.2429234441        3.8192746228       -1.7548109822
 H         -3.5648159831        4.6918855623       -0.9777708257
 H         -3.4934686969        3.1316501620        0.9390994949
 H         -2.0961887675        2.3144771200        0.2391971345
 H         -3.4711597609        1.6694237209       -1.7363239241
 H         -4.8804870025        2.4359424490       -1.0039840484
 H         -4.7421656841        0.8691617889        0.9191806637
 H         -3.2765344866        0.1654522670        0.2342745941
 H         -4.5767330058       -0.5587009140       -1.7719850763
 H         -6.0253925293        0.1671235108       -1.0979612226
 H         -5.9963547961       -2.2725099712       -0.7883179073
 H         -6.0844993093       -1.4001073992        0.7409233420
 H         -4.5845078220       -3.3260336275        0.9053678465
 H         -3.7261168759       -1.8184264310        1.1937857075
 H         -2.9340033994       -1.8746847258       -1.2011822780
 H         -3.6486314699       -3.4832370404       -1.3612752185
 H         -1.2280357182       -3.6396768451       -0.8421333442
 H         -2.2064286485       -4.3264510348        0.4706229424
 H         -0.6894387757       -1.6028451998       -1.5027838888
 H         -0.4747945764        0.3604609645       -2.9794285152
 H          1.2543858390        0.3645231525       -2.6445064138
 H          0.3001429214        1.8287343658       -2.3641994185
 H          2.3159425602        3.5214223211       -0.5870142275
 H          2.4541305303        1.7817807296       -0.9453751466
 H          2.6839057593        1.3275292335        1.5093461438
 H          2.5851132917        3.0573099046        1.8259705860
 H          4.9109380499        2.4153749342        1.8964797338
 H          4.6423561289        3.4343750543        0.4825986770
 H          6.1116178730        1.6458805539       -0.1497710742
 H          4.5700354504        1.3814192832       -0.9489135520
 H          3.9874311407       -0.2694743757        0.9058308273
 H          5.6046015054       -0.0214474301        1.5499845122
 H          5.7077502798       -2.0161497168        0.2601022633
 H          6.5331327777       -0.7799686979       -0.6792982908
 H          5.1709225275       -2.1404683474       -2.1335668571
 H          4.5466117520       -0.4975773675       -2.1150752153
 H          2.7238971694       -2.0897236988       -2.1045490001
 H          2.7067348020       -1.2017310847       -0.5883430552
 H          3.7406214962       -3.1072339155        0.5807702302
 H          3.9299319150       -3.9716401863       -0.9465590782
 H          1.2700514554       -3.1580906129        0.3179947166
 H          1.9450851974       -4.7877436161        0.3056399505
 H          1.4487216121       -4.0300526033       -1.2078298039
 H          0.1275701965        1.3973449179        2.2956948717
 H         -0.7203648498       -0.2052439624        3.8277869692
 H         -0.3498969227       -1.8733108621        3.3518346187
 H         -1.9806843320       -1.2591428524        3.1614461276
  80
        -93.64818203
 C         -7.9375064690        2.2673863840        1.0359275703
 C         -7.5772428916        2.1008369044        2.5077811297
 C         -6.7247685428        0.8617611296        2.7840556636
 C         -5.3204395822        0.9486090484        2.1903791736
 C         -4.4764736151       -0.2680985827        2.5630493819
 C         -3.0212071598       -0.1623065509        2.1035721712
 C         -2.8215863540       -0.0531731403        0.5911557126
 C         -3.3220224033       -1.2750551921       -0.1752889085
 C         -3.0249325180       -1.2045548053       -1.6739527332
 C         -1.5353563439       -1.2599294951       -2.0112464184
 O         -0.9883991965        0.0295237326       -1.8422870400
 C          0.3608029575        0.2003273741       -1.9690399923
 C          1.2590465654       -0.8002188104       -2.3155918544
 C          2.6206936301       -0.5527169592       -2.3937738501
 C          3.5868381119       -1.6396985403       -2.7527891451
 C          3.0970148959        0.7354977370       -2.1322788717
 O          4.4542585484        0.9040833316       -2.2385524601
 C          5.0647780487        2.0140291448       -1.6180021505
 C          4.9073343624        2.0075562306       -0.0937650577
 C          5.4073736429        0.6953168339        0.5181684006
 C          4.6258373663        0.2800816833        1.7653967077
 C          3.2041298970       -0.1768683103        1.4385205417
 C          2.4898444220       -0.7469293949        2.6615155967
 C          0.9993379975       -0.9959672990        2.4227380842
 C          0.6823069554       -1.9118511720        1.2404679357
 C          1.2657534565       -3.3162006873        1.3724252192
 C          0.8466388863       -4.2042216141        0.2066945547
 C          2.1932473859        1.7434458552       -1.8188119181
 C          0.8352099766        1.4942523138       -1.7248978353
 C         -0.1351894674        2.5769563539       -1.3651799099
 H         -8.6091394527        3.1130464018        0.9051599243
 H         -8.4348877546        1.3744067895        0.6629720620
 H         -7.0505317747        2.4450556157        0.4336177758
 H         -8.4997689747        2.0249498704        3.0886998333
 H         -7.0428772941        2.9890711187        2.8529253117
 H         -7.2320493397       -0.0199123937        2.3844158269
 H         -6.6413035041        0.7298874947        3.8661170421
 H         -4.8295572412        1.8532945116        2.5577898782
 H         -5.3914338521        1.0211147969        1.1054347887
 H         -4.9329677816       -1.1675276098        2.1457996891
 H         -4.4811876077       -0.3793209494        3.6508859484
 H         -2.4793392358       -1.0393948716        2.4674313795
 H         -2.5712026118        0.7158033085        2.5741112002
 H         -1.7558063943        0.0712391713        0.3984775616
 H         -3.3235070673        0.8381004608        0.2120755008
 H         -4.4024495964       -1.3674867662       -0.0497699168
 H         -2.8632186210       -2.1769687394        0.2391239535
 H         -3.4305211865       -0.2788989337       -2.0853659465
 H         -3.5164902963       -2.0433028835       -2.1711514159
 H         -1.4029046863       -1.5827547919       -3.0547690511
 H         -1.0292913250       -1.9816695891       -1.3566096495
 H          0.9085044084       -1.7979037439       -2.5315713144
 H          3.0700186309       -2.5793385701       -2.9305403173
 H          4.3117673198       -1.7797527079       -1.9516016929
 H          4.1441946963       -1.3643840262       -3.6464718531
 H          4.6889922262        2.9571746323       -2.0374645001
 H          6.1210601177        1.9180956398       -1.8858357261
 H          3.8536467485        2.1398310035        0.1488422201
 H          5.4536368807        2.8589811778        0.3149592195
 H          6.4672564767        0.7883291798        0.7643255246
 H          5.3122947914       -0.0961749397       -0.2281862993
 H          4.5940574274        1.1119938169        2.4732004643
 H          5.1543928229       -0.5445561927        2.2504517484
 H          3.2523496698       -0.9341654141        0.6546135530
 H          2.6185825502        0.6575840966        1.0478535246
 H          2.5879415338       -0.0411768014        3.4909328129
 H          2.9763557114       -1.6747256633        2.9687025292
 H          0.5075417879       -0.0353479245        2.2484946454
 H          0.5686407875       -1.4251655662        3.3314959951
 H          1.0454227599       -1.4533741807        0.3186180189
 H         -0.4048620388       -1.9930611418        1.1609974384
 H          0.9279927747       -3.7627135467        2.3109850530
 H          2.3548928332       -3.2628854919        1.4010868913
 H         -0.2374066019       -4.2938057152        0.1611068617
 H          1.2671334431       -5.2019664642        0.3110499843
 H          1.1966513607       -3.7822643830       -0.7332452506
 H          2.5376331343        2.7520257492       -1.6473516814
 H          0.3677252194        3.5354261901       -1.2665038031
 H         -0.6329974993        2.3378288079       -0.4261598383
 H         -0.9073238380        2.6541328605       -2.1285480088
  80
        -93.64559078
 C         -2.6056346267        1.7779122475       -5.7094974807
 C         -2.7735217312        2.3410753692       -4.3028299027
 C         -1.7296018360        1.8150014210       -3.3173350990
 C         -1.8973614555        0.3323545349       -2.9916240317
 C         -0.8489028665       -0.1417348480       -1.9888006136
 C         -0.9101959060       -1.6439379182       -1.7089729388
 C         -2.2073755634       -2.1242182130       -1.0550373147
 C         -2.4899681675       -1.4162752287        0.2675971050
 C         -3.6224881079       -2.0766579408        1.0502004251
 C         -3.9964170109       -1.3118849621        2.3261565833
 O         -2.9687820241       -1.3164188179        3.2925995599
 C         -1.9112220410       -0.4470738027        3.1818168245
 C         -1.9666504391        0.8049523257        2.5806694444
 C         -0.8566370498        1.6273425662        2.5134884050
 C         -0.9174540937        2.9661446688        1.8444370114
 C          0.3485267739        1.1975532709        3.0819339548
 O          1.3936260772        2.0770325368        2.9799402989
 C          2.6933696469        1.6567318714        3.3261418967
 C          3.2983184514        0.6884354354        2.3056929363
 C          3.4531401757        1.3506237502        0.9382876918
 C          4.0062385769        0.4064433302       -0.1303713357
 C          2.9699393080       -0.5974021142       -0.6324108922
 C          3.5521545048       -1.6463626760       -1.5820964441
 C          4.1751495845       -1.0918476795       -2.8656643884
 C          3.2081580318       -0.3463949484       -3.7865672664
 C          2.1451485205       -1.2499322396       -4.4076659060
 C          1.2727227366       -0.4922418128       -5.4013611008
 C          0.3958661633       -0.0372268454        3.7146663041
 C         -0.7143339205       -0.8650753997        3.7717947385
 C         -0.6528802565       -2.1984387770        4.4514996249
 H         -3.3235464124        2.2344714384       -6.3872580608
 H         -2.7654854543        0.7030436858       -5.7228092232
 H         -1.6043231922        1.9810256161       -6.0836565907
 H         -3.7728085090        2.1006979607       -3.9322584181
 H         -2.6923050386        3.4298922694       -4.3488360547
 H         -1.8014552516        2.3870315561       -2.3884371116
 H         -0.7320620611        1.9871587134       -3.7298168951
 H         -1.8033643046       -0.2600215630       -3.9032733297
 H         -2.8986764720        0.1718661087       -2.5881846365
 H         -0.9529643804        0.4117234240       -1.0537585082
 H          0.1403837144        0.0874814344       -2.3918434285
 H         -0.0747154357       -1.9045672462       -1.0537740562
 H         -0.7750299044       -2.1843828224       -2.6498055267
 H         -2.1201283941       -3.1986894670       -0.8734651786
 H         -3.0467948949       -1.9781469925       -1.7373362882
 H         -2.7544212812       -0.3759571579        0.0730191438
 H         -1.5806496200       -1.4230639305        0.8716575405
 H         -3.3312715804       -3.0924550898        1.3260304620
 H         -4.5155117929       -2.1397144382        0.4237792527
 H         -4.8339048128       -1.8176243075        2.8172712717
 H         -4.3147093031       -0.2942431826        2.0757841299
 H         -2.8870861549        1.1619939183        2.1443071104
 H         -1.9090266951        3.1579849568        1.4426576803
 H         -0.1890127160        3.0140153623        1.0359946680
 H         -0.6623049882        3.7509662538        2.5545068482
 H          2.7089901263        1.2180865754        4.3323814203
 H          3.2784252157        2.5812780668        3.3490894320
 H          2.6529812944       -0.1866307478        2.2204982460
 H          4.2729778326        0.3610956628        2.6735795152
 H          4.1265942256        2.2051781222        1.0423363286
 H          2.4817052464        1.7328517936        0.6181862875
 H          4.8680814241       -0.1303721341        0.2740492926
 H          4.3547924455        1.0074913952       -0.9719015665
 H          2.1585934914       -0.0584367306       -1.1235108159
 H          2.5351068090       -1.1249383379        0.2193558652
 H          2.7635640441       -2.3547487012       -1.8437836150
 H          4.3252217496       -2.2055603510       -1.0479599477
 H          4.6071251454       -1.9285863265       -3.4213237826
 H          4.9965491147       -0.4227337142       -2.6025307631
 H          3.7885347799        0.1114577814       -4.5922698947
 H          2.7232020270        0.4631769981       -3.2381757886
 H          1.5126149136       -1.6679662617       -3.6235335739
 H          2.6361759072       -2.0818772428       -4.9184872064
 H          0.7679778416        0.3373685640       -4.9117156598
 H          0.5168689423       -1.1485133953       -5.8270904482
 H          1.8759287536       -0.0925139331       -6.2140902488
 H          1.3067320597       -0.3836057491        4.1785138229
 H          0.3651566715       -2.4422692481        4.7441912829
 H         -1.0330619621       -2.9741003057        3.7888612213
 H         -1.2847893948       -2.1940221694        5.3384942775
  80
        -93.64545090
 C         -5.9843855954        5.5955386117        0.5136815909
 C         -4.6686059831        4.8883208179        0.8166213828
 C         -4.7829969169        3.8621549389        1.9444033880
 C         -5.6411898584        2.6523230814        1.5788403472
 C         -5.6193844449        1.5989302878        2.6848106760
 C         -6.5841733292        0.4365197094        2.4413088852
 C         -6.3426542488       -0.3340835305        1.1421884291
 C         -4.9598836041       -0.9775779799        1.0784190489
 C         -4.7533654151       -1.8408880680       -0.1666297767
 C         -4.7001027303       -1.0077219573       -1.4526400004
 O         -3.7638441589        0.0430582899       -1.3914485577
 C         -2.4225978460       -0.2341993994       -1.4441275502
 C         -1.8683832283       -1.4603379506       -1.7869783294
 C         -0.4968457992       -1.6429188582       -1.8421379531
 C          0.0976761930       -2.9656054657       -2.2170482468
 C          0.3503144865       -0.5688646984       -1.5484767369
 O          1.6902064318       -0.8319214621       -1.6545067068
 C          2.6279209834        0.1165967825       -1.2007827475
 C          2.7092850604        0.2013245276        0.3266155447
 C          3.0150057646       -1.1464081799        0.9828321456
 C          4.3730471898       -1.7506226215        0.6236127726
 C          5.5587284988       -0.8844273450        1.0429949679
 C          6.8905052178       -1.5908428618        0.7984853913
 C          8.0772915350       -0.7145886606        1.1938347429
 C          9.4267004823       -1.4213396884        1.0631145318
 C          9.8213914538       -1.7182405466       -0.3821052841
 C         11.2202346219       -2.3166031604       -0.4692880972
 C         -0.2042260881        0.6581060854       -1.2086140202
 C         -1.5758678106        0.8400438326       -1.1513547438
 C         -2.1699008219        2.1644016364       -0.7814656711
 H         -5.8338775051        6.3672901340       -0.2380996976
 H         -6.3799636803        6.0652273612        1.4119622745
 H         -6.7252649426        4.8960826641        0.1357145441
 H         -3.9245437695        5.6365160053        1.1013305988
 H         -4.3075168119        4.3915650878       -0.0863463726
 H         -5.1979504821        4.3472667564        2.8315547156
 H         -3.7788961844        3.5139878335        2.2019828999
 H         -5.2643928530        2.2215577914        0.6496772153
 H         -6.6724566460        2.9680726722        1.4115989509
 H         -5.8949335560        2.0755866862        3.6296652397
 H         -4.6037221642        1.2164467643        2.8023116644
 H         -7.6053829935        0.8263530764        2.4254556391
 H         -6.5106798446       -0.2567817504        3.2834462691
 H         -6.4750492957        0.3410454635        0.2972008231
 H         -7.1017714268       -1.1171832968        1.0606966470
 H         -4.8156860156       -1.5996818340        1.9651449184
 H         -4.1922126662       -0.2032883485        1.0837724683
 H         -5.5619099224       -2.5683029019       -0.2632888186
 H         -3.8140296576       -2.3870088643       -0.0577299405
 H         -5.6579418762       -0.5062274720       -1.6135667293
 H         -4.5113690301       -1.6563779152       -2.3179535273
 H         -2.4994857225       -2.3024981970       -2.0259194206
 H         -0.6757652570       -3.7153137301       -2.3619371460
 H          0.7824486983       -3.3027345570       -1.4403740647
 H          0.6752538923       -2.8679790537       -3.1351004985
 H          2.4210576118        1.1084195158       -1.6240274140
 H          3.5811364921       -0.2289136075       -1.6087143107
 H          1.7513841949        0.5552962478        0.7137621470
 H          3.4699987203        0.9369030040        0.5901219104
 H          2.2335921482       -1.8519494399        0.6918362209
 H          2.9600856058       -1.0193181284        2.0668743668
 H          4.4205624093       -1.9398062591       -0.4498963504
 H          4.4533276153       -2.7187197185        1.1249330039
 H          5.4686215093       -0.6388321505        2.1041734369
 H          5.5513335954        0.0526115800        0.4829215482
 H          6.9614650814       -1.8545704899       -0.2581262212
 H          6.9198696195       -2.5181635867        1.3757045770
 H          7.9473881962       -0.4004355241        2.2328044411
 H          8.0822167308        0.1871729186        0.5765079028
 H          9.4007562467       -2.3556690402        1.6290313697
 H         10.1968077471       -0.7874142703        1.5103870638
 H          9.7865511981       -0.7925753630       -0.9615089306
 H          9.1079825531       -2.4155920418       -0.8239581066
 H         11.9569054583       -1.6286357852       -0.0595245053
 H         11.4845000200       -2.5259632906       -1.5033667262
 H         11.2723388797       -3.2465185611        0.0930740764
 H          0.4258826126        1.5053853664       -0.9858460071
 H         -1.3964090223        2.9122728318       -0.6274988866
 H         -2.7566482575        2.0700964880        0.1312108215
 H         -2.8432814961        2.5023362179       -1.5674514521
  80
        -93.64426349
 C         -1.6094506354        2.8414713377       -4.1689343552
 C         -1.0235051767        2.5088431099       -2.8016092202
 C         -2.0642506052        2.5200343166       -1.6816467475
 C         -3.0822153702        1.3872835732       -1.7907486893
 C         -4.0012503925        1.3383168856       -0.5732012601
 C         -5.0501142506        0.2349438142       -0.6981505680
 C         -5.9399427768        0.1132332698        0.5412085044
 C         -5.2207124782       -0.5349539111        1.7258624088
 C         -5.1233023697       -2.0565647535        1.5886298426
 C         -3.9977877901       -2.6756035314        2.4276804126
 O         -2.7574828994       -2.6591226423        1.7508272361
 C         -2.0305823600       -1.4967288553        1.6628794725
 C         -1.9439157957       -0.5448254270        2.6726026868
 C         -1.1549956465        0.5835510920        2.5397316806
 C         -1.0835334539        1.6161429644        3.6221127340
 C         -0.4089999213        0.7634348287        1.3670286934
 O          0.3095679778        1.9280987358        1.3118989732
 C          1.3235135467        2.1267197000        0.3512238068
 C          2.6975786419        1.6453989813        0.8293556211
 C          2.8129086766        0.1249830163        0.9085630274
 C          4.1499214829       -0.3451185534        1.4840817652
 C          5.3838638220        0.0641719266        0.6777734095
 C          5.3858981617       -0.4758512808       -0.7508903405
 C          6.7079603951       -0.1814926792       -1.4571927060
 C          6.7115001204       -0.5805102797       -2.9331819194
 C          6.6407573259       -2.0897307565       -3.1563600491
 C          6.7612778274       -2.4438801361       -4.6337458386
 C         -0.4834755266       -0.1949852087        0.3659508035
 C         -1.2841574784       -1.3187832225        0.4949298974
 C         -1.3489482133       -2.3475767304       -0.5917991687
 H         -0.8213086134        2.8908944794       -4.9173551155
 H         -2.1154953842        3.8040504433       -4.1405448175
 H         -2.3250162507        2.0851804361       -4.4803304444
 H         -0.2462816365        3.2401119251       -2.5645529866
 H         -0.5507863829        1.5243112876       -2.8440253495
 H         -2.5867960769        3.4795752596       -1.6878855351
 H         -1.5516468242        2.4329708227       -0.7213481332
 H         -2.5530577494        0.4351302211       -1.8722107483
 H         -3.6860737622        1.5150420032       -2.6912632258
 H         -4.5039390528        2.3019423422       -0.4580962442
 H         -3.3893882801        1.1740144055        0.3157739971
 H         -4.5439525194       -0.7144584896       -0.8822032194
 H         -5.6783202308        0.4444803118       -1.5675927459
 H         -6.8268569470       -0.4767908917        0.2973275384
 H         -6.2772432474        1.1118050546        0.8276258736
 H         -5.7514814573       -0.2974778212        2.6509160732
 H         -4.2220161842       -0.1078963742        1.8016309666
 H         -4.9370880518       -2.3257136337        0.5475250745
 H         -6.0728084614       -2.5097296514        1.8809905989
 H         -4.1968961789       -3.7402592057        2.5828114278
 H         -3.9388050709       -2.1921385526        3.4087939971
 H         -2.4966830563       -0.6755556397        3.5912848367
 H         -1.6450747082        1.3028209965        4.4982293356
 H         -1.4847755582        2.5626756066        3.2619910955
 H         -0.0466319083        1.7914216434        3.9035742821
 H          1.3562697892        3.2128692462        0.2113101803
 H          1.0707237382        1.6704461541       -0.6103297784
 H          2.8870826096        2.0744703855        1.8156042608
 H          3.4417928560        2.0411637678        0.1366378229
 H          2.6701985432       -0.3049548751       -0.0844293890
 H          2.0167311166       -0.2597122995        1.5497847041
 H          4.1250615243       -1.4352337249        1.5567969935
 H          4.2528639869        0.0489251464        2.4982973024
 H          6.2677086571       -0.3169476708        1.1960932692
 H          5.4684484748        1.1522693400        0.6555876018
 H          4.5745001503       -0.0191818290       -1.3204447302
 H          5.2133973696       -1.5530333036       -0.7221471623
 H          7.5181765483       -0.7024456590       -0.9413514827
 H          6.9097963327        0.8906729575       -1.3857884846
 H          7.6282886884       -0.2035102016       -3.3938918401
 H          5.8693077009       -0.1015698516       -3.4387800262
 H          5.6945962523       -2.4757426720       -2.7738654706
 H          7.4477224009       -2.5731225485       -2.6007667762
 H          5.9572403017       -1.9821282389       -5.2030754743
 H          6.7075282370       -3.5208322006       -4.7760278496
 H          7.7091544068       -2.0917661910       -5.0354564202
 H          0.0829674990       -0.0838748865       -0.5453661825
 H         -0.8634488494       -1.9919144641       -1.4972261031
 H         -2.3851227518       -2.5966365362       -0.8130301149
 H         -0.8595066788       -3.2650455909       -0.2671944897
  80
        -93.64409296
 C         -9.6360151480        1.2121795814       -3.2938730219
 C         -8.1905578870        1.6934500244       -3.3254196618
 C         -7.2076488596        0.5609264322       -3.0372748072
 C         -5.7600249058        1.0459212790       -3.0557872935
 C         -4.7375842623       -0.0820669471       -2.9096467479
 C         -4.8291353580       -0.8746531545       -1.6033467774
 C         -4.6929667744       -0.0424773136       -0.3273296650
 C         -3.3412749249        0.6576572115       -0.2077426626
 C         -3.1667899260        1.3893332850        1.1246826871
 C         -2.8539925118        0.4317519854        2.2789546642
 O         -1.6430395533       -0.2651787997        2.0975094396
 C         -0.4502278373        0.3790668332        2.2947275872
 C         -0.3020998388        1.6634704282        2.8023041926
 C          0.9487217309        2.2287234463        2.9879859305
 C          1.1030066353        3.6137875141        3.5363314953
 C          2.0902513064        1.4897115025        2.6607725069
 O          3.2870510742        2.1182228921        2.8896369408
 C          4.4816438078        1.4938953764        2.4765889426
 C          4.6872420302        1.5660218568        0.9599436032
 C          5.8822956877        0.7391408580        0.4845724288
 C          5.6555985082       -0.7745959126        0.5139312127
 C          4.6555953889       -1.2583204087       -0.5352441385
 C          4.4536368228       -2.7703140129       -0.4601660227
 C          3.3663562821       -3.2856834890       -1.4046786402
 C          3.6490566699       -3.0739850758       -2.8927532742
 C          4.8960774401       -3.8027744940       -3.3881877932
 C          5.0480453755       -3.6875361060       -4.9002061757
 C          1.9421776383        0.2022089809        2.1607904691
 C          0.6916141113       -0.3612395256        1.9707321259
 C          0.5411311352       -1.7480869979        1.4245790824
 H        -10.3188518026        2.0324652238       -3.5032047139
 H         -9.8809572144        0.8030277288       -2.3158936468
 H         -9.7951182608        0.4348837161       -4.0383089611
 H         -8.0556750405        2.4849408578       -2.5841784253
 H         -7.9723194509        2.1209298067       -4.3069781365
 H         -7.3343086887       -0.2246975792       -3.7862932701
 H         -7.4416609385        0.1313058364       -2.0616838461
 H         -5.6147023192        1.7834433627       -2.2644863142
 H         -5.5730123296        1.5525470693       -4.0066108265
 H         -3.7356825657        0.3416063323       -3.0030127234
 H         -4.8702494731       -0.7825390078       -3.7384994495
 H         -4.0403355976       -1.6313505051       -1.6109519969
 H         -5.7837792860       -1.4037496342       -1.5735045131
 H         -4.8274888688       -0.7137576131        0.5236014267
 H         -5.4905460914        0.7015348847       -0.2828653333
 H         -3.2380881784        1.3818005535       -1.0173199685
 H         -2.5392193843       -0.0764611581       -0.3090718291
 H         -4.0739446324        1.9459132788        1.3687568058
 H         -2.3443650919        2.1015126071        1.0319931806
 H         -3.6126892597       -0.3536689060        2.3319274167
 H         -2.8575814896        0.9698194445        3.2355846888
 H         -1.1649972242        2.2538552114        3.0694259970
 H          0.1348608456        4.0750958297        3.7127885208
 H          1.6723237762        4.2290559651        2.8413976168
 H          1.6600253013        3.5843764804        4.4715498932
 H          4.5159152134        0.4575753669        2.8324332266
 H          5.2745999079        2.0506112321        2.9852490672
 H          4.8407633887        2.6126883342        0.6889330909
 H          3.7764875659        1.2343676083        0.4602421113
 H          6.7452017802        0.9815406918        1.1099410392
 H          6.1248704788        1.0328532978       -0.5391851714
 H          5.3198004003       -1.0813922842        1.5066352789
 H          6.6132695594       -1.2699901475        0.3347733300
 H          5.0244174112       -0.9818267224       -1.5242458858
 H          3.6906789022       -0.7686295535       -0.3915948386
 H          4.1684949680       -3.0356983668        0.5620989375
 H          5.3976199283       -3.2759304847       -0.6704244093
 H          2.4244321798       -2.7887378030       -1.1585651231
 H          3.2305538051       -4.3552124094       -1.2238672848
 H          3.7449179314       -2.0074611647       -3.1035898331
 H          2.7858105761       -3.4384439247       -3.4559584251
 H          4.8315824486       -4.8572466662       -3.1092848705
 H          5.7836169314       -3.3849402921       -2.9102742161
 H          4.1891136181       -4.1241609709       -5.4055800623
 H          5.9434609154       -4.2051641757       -5.2368904362
 H          5.1234138887       -2.6434415447       -5.1971661317
 H          2.8037276734       -0.3959698307        1.9110125286
 H          1.5106115311       -2.2123410615        1.2636774711
 H         -0.0022992713       -1.7223004171        0.4806169754
 H         -0.0387689352       -2.3599519098        2.1133304614
  80
        -93.64170874
 C         -8.2322753839        5.0730115722       -0.3003421522
 C         -7.0825694293        5.6697987329       -1.1040227104
 C         -5.7237414062        5.0595175711       -0.7583208840
 C         -5.5885521417        3.6000523431       -1.1872607235
 C         -4.1910918441        3.0564283474       -0.8979792102
 C         -3.9662061073        1.6412078309       -1.4316684388
 C         -4.8772457168        0.5732803189       -0.8248231283
 C         -4.7060338883        0.4357553703        0.6874643901
 C         -5.3335267318       -0.8433300060        1.2461731060
 C         -4.5340164410       -2.1200600345        0.9563838414
 O         -3.3264640015       -2.1745377512        1.6845169020
 C         -2.1827195549       -1.5901506999        1.2018917002
 C         -1.9008173509       -1.3568264666       -0.1387330365
 C         -0.7018777537       -0.7955862694       -0.5412869859
 C         -0.4147176668       -0.5259111915       -1.9866185594
 C          0.2587884861       -0.4692923881        0.4225446167
 O          1.4052664610        0.1047112848       -0.0591822962
 C          2.5338788185        0.2158491206        0.7768544606
 C          3.1939102313       -1.1319680090        1.0850966409
 C          3.5276996236       -1.9360484867       -0.1729315048
 C          4.5120667122       -1.2629003329       -1.1299903004
 C          5.8784957288       -0.9876435893       -0.5058272714
 C          6.8715004851       -0.4682618910       -1.5434155321
 C          8.2055852380       -0.0242507524       -0.9409002109
 C          8.9907813728       -1.1251180056       -0.2259360745
 C          9.3964514111       -2.2785305837       -1.1406452648
 C         10.2996014778       -3.2728697845       -0.4207267259
 C         -0.0151774503       -0.7143968048        1.7612954227
 C         -1.2200210085       -1.2670107625        2.1643479518
 C         -1.5074949129       -1.5292028723        3.6107591073
 H         -9.1606620439        5.5929651558       -0.5263325258
 H         -8.0386949112        5.1659596675        0.7663063014
 H         -8.3694598030        4.0207784729       -0.5352589800
 H         -7.0405183351        6.7446129484       -0.9110468284
 H         -7.2768932661        5.5341166944       -2.1705635345
 H         -5.5588781822        5.1357058137        0.3192624038
 H         -4.9428012478        5.6439400696       -1.2518704559
 H         -5.7921868550        3.5195812977       -2.2580980148
 H         -6.3278782810        2.9989102937       -0.6583128902
 H         -4.0082972556        3.0770363082        0.1776708273
 H         -3.4540604332        3.7157488687       -1.3642433442
 H         -2.9284757330        1.3584614054       -1.2380748523
 H         -4.1113216049        1.6480112637       -2.5153036276
 H         -4.6413055222       -0.3770608356       -1.3073610047
 H         -5.9212447709        0.7952086964       -1.0541728878
 H         -5.1761836993        1.2896139991        1.1789651658
 H         -3.6437119234        0.4556738725        0.9379464542
 H         -6.3380094213       -0.9689649520        0.8356374958
 H         -5.4212037928       -0.7529811311        2.3310851619
 H         -4.3704365075       -2.2449856103       -0.1172272044
 H         -5.1071091713       -2.9833752860        1.3110013064
 H         -2.6172801993       -1.6108497430       -0.9041320957
 H         -1.2291926239       -0.8708090159       -2.6182238125
 H          0.5063441052       -1.0236985619       -2.2859640033
 H         -0.2690421157        0.5417992854       -2.1453508690
 H          2.2836426337        0.7352237443        1.7116596841
 H          3.2224317999        0.8519593221        0.2150639252
 H          2.5149165049       -1.7306546535        1.6960316734
 H          4.0948487184       -0.9449657206        1.6705255449
 H          2.5974966028       -2.1300630403       -0.7116074047
 H          3.9366812949       -2.9008091951        0.1375473604
 H          4.0836059073       -0.3312583697       -1.5028065650
 H          4.6480952864       -1.9222228115       -1.9914508029
 H          6.2556019057       -1.9109878909       -0.0625655212
 H          5.7818602311       -0.2465445867        0.2900687704
 H          6.4268051648        0.3907723745       -2.0531287527
 H          7.0447872887       -1.2368386290       -2.2985296352
 H          8.0159829061        0.7830345694       -0.2284297609
 H          8.8274200782        0.3845817326       -1.7415896600
 H          8.4056376163       -1.5140158323        0.6092683018
 H          9.8960049698       -0.6780450804        0.1937625148
 H          9.9189459972       -1.8793834884       -2.0132672320
 H          8.5059828836       -2.8003084027       -1.4946149645
 H         11.2121261263       -2.7861827494       -0.0826247597
 H         10.5728749995       -4.0921131548       -1.0819816828
 H          9.7929677280       -3.6880286716        0.4481767548
 H          0.7057082152       -0.4652620467        2.5247876640
 H         -0.7203472758       -1.1292338139        4.2446355822
 H         -1.5945194681       -2.6006511527        3.7859528307
 H         -2.4581316695       -1.0783401316        3.8903366511
