  27
        -43.60144949
 C         -4.3803410246        0.5408140566        0.4864128270
 C         -3.5224350540       -0.2415588115       -0.1583454469
 C         -2.0689894314       -0.1253463478       -0.1403308355
 C         -1.2943751389       -1.2699333086       -0.2262530579
 C          0.1022186676       -1.2287421680       -0.1614015134
 C          0.8941947484       -2.4480323896       -0.2550497533
 C          0.4910570051       -3.6364875122        0.1770110421
 C          0.6740613903        0.0461506875       -0.0316282566
 C          2.1414229864        0.2506549806        0.1043373442
 O          2.9436659325       -0.6007044874        0.4089068320
 O          2.4854743476        1.5164986430       -0.1512408605
 C          3.8633626370        1.8199416930       -0.0131953199
 N         -0.0492986965        1.1596541803       -0.0144627202
 C         -1.3698347656        1.1081562136       -0.0684449229
 N         -2.0068375424        2.3156083920       -0.0334489814
 H         -5.4414171579        0.3629112384        0.4371417186
 H         -4.0594809211        1.3488871257        1.1213040635
 H         -3.8973854810       -1.0871360651       -0.7236129337
 H         -1.7849195339       -2.2259997747       -0.3421264928
 H          1.8803975699       -2.3394156829       -0.6814951531
 H         -0.4589428809       -3.7837220981        0.6643030888
 H          1.1153430036       -4.5078623109        0.0824023688
 H          3.9663408341        2.8780552195       -0.2394630084
 H          4.4582251264        1.2200310264       -0.7062019789
 H          4.2000170381        1.6099510969        1.0045628159
 H         -1.3962695320        3.1038608451       -0.1807338123
 H         -2.9258326062        2.3692495844       -0.4416423703
  27
        -43.60118010
 C         -4.3586630922       -0.7481257136        0.2758405308
 C         -3.5202694210        0.1589097940       -0.2092757882
 C         -2.0680483570        0.1068295806       -0.0786122622
 C         -1.3758062454       -1.0887806303       -0.0188313247
 C          0.0200319967       -1.1326553466        0.0789973650
 C          0.7358659444       -2.4018250669        0.1269120714
 C          0.2789541778       -3.5494349031       -0.3602770890
 C          0.6760292982        0.1076693726        0.1021766517
 C          2.1590495286        0.2503052065        0.1774119678
 O          2.9243508468       -0.5297564139        0.6931644342
 O          2.5590967966        1.3870087844       -0.3971143567
 C          3.9520638484        1.6477058261       -0.3485453846
 N          0.0275453291        1.2666909012        0.0554044558
 C         -1.2925662220        1.2932561029       -0.0222419259
 N         -1.8567427061        2.5355196329       -0.0789361902
 H         -5.4228993935       -0.6638379118        0.1380114239
 H         -4.0168519687       -1.5987776817        0.8410222188
 H         -3.9101045245        1.0116524026       -0.7513449017
 H         -1.9286274632       -2.0149510795       -0.0529084062
 H          1.7156828654       -2.3632237311        0.5779032431
 H         -0.6736838731       -3.6372092389       -0.8567204583
 H          0.8605072577       -4.4527654453       -0.2946328425
 H          4.1045146360        2.5872168691       -0.8733840016
 H          4.5080152837        0.8418378980       -0.8337150752
 H          4.2887732131        1.7273862117        0.6875790394
 H         -1.2208621838        3.2921598550        0.1131322901
 H         -2.8067198857        2.6519198039        0.2269361133
  27
        -43.60087203
 C         -4.3354985589       -0.7567136743        0.3585541837
 C         -3.5273584606        0.1460547117       -0.1826493780
 C         -2.0713839844        0.1058642659       -0.1198659233
 C         -1.3762156527       -1.0894375068       -0.0715287940
 C          0.0224770786       -1.1352949495       -0.0525232808
 C          0.7377546887       -2.4027706246        0.0259565591
 C          0.2385115027       -3.5221970813        0.5369011865
 C          0.6803166842        0.1029244368       -0.1190498192
 C          2.1648590650        0.2432034890       -0.1588995306
 O          2.9451117448       -0.5646636856       -0.6047046746
 O          2.5479149791        1.4126320502        0.3589126588
 C          3.9418265826        1.6718864755        0.3364268525
 N          0.0315328557        1.2615282385       -0.1526520384
 C         -1.2918593674        1.2919771284       -0.1357138142
 N         -1.8455764001        2.5335508512       -0.0705207856
 H         -5.4054984802       -0.6823599198        0.2690230556
 H         -3.9611472221       -1.5920720106        0.9251501075
 H         -3.9593902439        0.9841562935       -0.7172525217
 H         -1.9299802037       -2.0154937117       -0.0960112818
 H          1.7514719749       -2.3875668924       -0.3439649688
 H         -0.7534602174       -3.5832073950        0.9538523681
 H          0.8201940136       -4.4271352685        0.5709695345
 H          4.0757589153        2.6555361708        0.7789947057
 H          4.3157410988        1.6575251262       -0.6898290515
 H          4.4796459906        0.9153609180        0.9129085467
 H         -1.2107185038        3.2983398222       -0.2245459571
 H         -2.8109103147        2.6660627656       -0.3127572005
  27
        -43.59983266
 C         -4.4366656795        0.8228535804       -0.6249336512
 C         -3.6257455557       -0.1772366459       -0.2995038247
 C         -2.1879175945       -0.0856365992       -0.0733793691
 C         -1.3775139157       -1.1626072727       -0.3970897005
 C          0.0101322899       -1.1146811891       -0.2426493004
 C          0.8195305276       -2.2888004869       -0.5417101766
 C          1.9353971273       -2.6293046470        0.0890261739
 C          0.5352508033        0.0955541225        0.2241700037
 C          2.0094294402        0.3456374671        0.3122528568
 O          2.6106177462        0.6397928891        1.3108779134
 O          2.5721107307        0.2325326307       -0.8980558576
 C          3.9760094662        0.4379038534       -0.9644845137
 N         -0.2206213544        1.1134577339        0.6003110159
 C         -1.5420009741        1.0442055059        0.4886032982
 N         -2.2207215162        2.1463729083        0.9190660454
 H         -5.4865266927        0.6545268362       -0.7963408828
 H         -4.0818921896        1.8275571724       -0.7784046662
 H         -4.0264392957       -1.1819749695       -0.2291784807
 H         -1.8314419475       -2.0633685853       -0.7884289793
 H          0.4204647196       -2.9336275641       -1.3154611266
 H          2.3372506248       -2.0442299379        0.8992545701
 H          2.4797553690       -3.5209016592       -0.1723875147
 H          4.4985973402       -0.4693452799       -0.6525899723
 H          4.2685209855        1.2613055923       -0.3098440887
 H          4.2071472428        0.6673723417       -2.0017712918
 H         -1.6629810375        2.7843667584        1.4647656145
 H         -3.1797375810        2.0230084455        1.2002213652
  27
        -43.59973269
 C         -4.4900760506       -0.6299183555        0.2695758107
 C         -3.6333204919        0.2567249349       -0.2211386480
 C         -2.1810611926        0.1543257268       -0.1299749763
 C         -1.5260699353       -1.0650942598       -0.1031809362
 C         -0.1315967159       -1.1431616244       -0.0596847479
 C          0.5301415488       -2.4379188402        0.0461321321
 C          1.6271908481       -2.6672974102        0.7534139769
 C          0.5615428873        0.0703708600       -0.1083499297
 C          2.0463756928        0.1290829769       -0.2797226880
 O          2.6559117081       -0.4272096193       -1.1569845977
 O          2.6148333210        0.9133321966        0.6402967746
 C          4.0179817151        1.0965664552        0.5179760133
 N         -0.0426604638        1.2503145513       -0.0999017681
 C         -1.3671061713        1.3141239910       -0.0854197966
 N         -1.8956572261        2.5729021551       -0.0828357093
 H         -5.5537775681       -0.5076417287        0.1590564552
 H         -4.1642720157       -1.5019766272        0.8110223349
 H         -4.0072329070        1.1317318163       -0.7383858186
 H         -2.1027470221       -1.9785290591       -0.1309478740
 H          0.0336622500       -3.2539930776       -0.4638554275
 H          2.1186735278       -1.8877929093        1.3115963192
 H          2.0711514583       -3.6462958045        0.8069084943
 H          4.3286632312        1.6677268095        1.3890724494
 H          4.2490943123        1.6408811359       -0.3997904131
 H          4.5261578576        0.1299533453        0.4879710217
 H         -1.2304492436        3.3081820369        0.0913331339
 H         -2.8260657292        2.7072308856        0.2717468469
  27
        -43.59953343
 C         -4.3260638652       -0.9468226657       -0.0764234043
 C         -3.5499486398        0.0690272414        0.2791655186
 C         -2.1044188801        0.1239284078        0.0870228212
 C         -1.3155688098       -1.0131867563        0.1043630018
 C          0.0729930030       -0.9428916918       -0.0413196429
 C          0.9098449250       -2.1360553994       -0.0625816735
 C          0.6144391067       -3.2847694260        0.5321701594
 C          0.6141107298        0.3394399138       -0.1926025204
 C          2.0868510742        0.5748334140       -0.3130969438
 O          2.6209880363        1.1977831521       -1.1913808954
 O          2.7514116358        0.0037344483        0.7022680304
 C          4.1607347614        0.1804333891        0.6991189798
 N         -0.1218018837        1.4393496922       -0.2425374784
 C         -1.4398665718        1.3591096344       -0.1186577226
 N         -2.1064017590        2.5488443163       -0.1637304787
 H         -5.3871874401       -0.9362310639        0.1039731099
 H         -3.9358122273       -1.8187632211       -0.5736841631
 H         -3.9902752119        0.9364663377        0.7552831817
 H         -1.7839000930       -1.9762319453        0.2397724042
 H          1.8403792354       -2.0420242400       -0.6063048753
 H         -0.2823991140       -3.4196259217        1.1131230657
 H          1.2741672179       -4.1331585015        0.4746916399
 H          4.5347844682       -0.3451831459        1.5737917579
 H          4.4089613710        1.2423489341        0.7522493945
 H          4.5936559992       -0.2342520889       -0.2139266105
 H         -1.5469448346        3.3291203211       -0.4676430140
 H         -3.0745984622        2.5525063015       -0.4325897634
  27
        -43.59945940
 C         -4.3887852154       -0.5217981807        0.8701902345
 C         -3.6508355593        0.1879591417        0.0262127679
 C         -2.1929828174        0.1584987904       -0.0358032886
 C         -1.4656569778       -0.9751556736        0.2840137548
 C         -0.0718156682       -1.0036555715        0.1817602365
 C          0.6509510099       -2.2397822119        0.4544515456
 C          1.7552637870       -2.6339868667       -0.1649247732
 C          0.5449094929        0.1850679268       -0.2218596834
 C          2.0348564493        0.3297274224       -0.2828645114
 O          2.6730512461        0.6134747210       -1.2609264031
 O          2.5700523220        0.1366953846        0.9308043223
 C          3.9841717982        0.2391611155        1.0156070085
 N         -0.1267188064        1.2838053162       -0.5284848324
 C         -1.4527721335        1.2910403333       -0.4577426424
 N         -2.0513817032        2.4552300605       -0.8381493443
 H         -5.4638760297       -0.4699340610        0.8611920496
 H         -3.9491932132       -1.1696550328        1.6096626730
 H         -4.1370181871        0.8427898756       -0.6862157740
 H         -1.9877904042       -1.8733064418        0.5817811633
 H          0.1918907124       -2.8825959275        1.1960756249
 H          2.2136707368       -2.0510519694       -0.9460564641
 H          2.2317429116       -3.5692933528        0.0756227008
 H          4.2240779681        0.3185544234        2.0728629831
 H          4.3333815974        1.1185953081        0.4708848627
 H          4.4492567425       -0.6514490950        0.5869461625
 H         -1.4201695756        3.2242822263       -0.9907448269
 H         -2.9673316790        2.6746019540       -0.4893750722
  27
        -43.59935527
 C         -4.4082071909        0.5059476538       -0.5884719992
 C         -3.5327156849       -0.3495243449       -0.0737330581
 C         -2.0957321707       -0.1371065862        0.0635476760
 C         -1.2363022946       -1.2179891806       -0.0543151779
 C          0.1501116876       -1.0666056889        0.0259856496
 C          1.0716273299       -2.1897324324       -0.0801718059
 C          0.8151062595       -3.3354155631       -0.6989088889
 C          0.6123283745        0.2350522831        0.2528548817
 C          2.0769420862        0.5445841812        0.3337008783
 O          2.6389853376        0.9790033378        1.3030669340
 O          2.6750309912        0.2656060443       -0.8312046935
 C          4.0722108979        0.5100911402       -0.9330273999
 N         -0.1871907309        1.2727785869        0.4305063241
 C         -1.5043895552        1.1189680204        0.3485167231
 N         -2.2352556537        2.2540128556        0.5431302021
 H         -5.4513479410        0.2515668615       -0.6729000568
 H         -4.1155494838        1.4623506046       -0.9867728227
 H         -3.8729163303       -1.3284678406        0.2440643641
 H         -1.6536198042       -2.2018876117       -0.2136790910
 H          2.0373120119       -2.0400829374        0.3850322233
 H         -0.1180018141       -3.5233038668       -1.2026911735
 H          1.5423099026       -4.1278540680       -0.7378468085
 H          4.5534424413       -0.4131829538       -1.2557518169
 H          4.4647894177        0.8264001730        0.0354930734
 H          4.2346525548        1.2919345720       -1.6753285182
 H         -1.7080481973        3.0197986650        0.9325140614
 H         -3.1857489471        2.1475981298        0.8585194489
