24
 energy: -42.130367043462 gnorm: 0.000094365478 xtb: 6.4.1 (23d549d)
C         3.80117888160000   -1.55937150750000   -0.08390385530000
C         2.48689932980000   -1.65561099400000    0.07432278460000
C         1.51788002050000   -0.56446191380000    0.04298900880000
C         0.16351950370000   -0.88220559020000    0.03578351970000
C        -0.80592078240000    0.11919370180000   -0.00141861100000
C        -2.23618604780000   -0.15065157790000   -0.01559059760000
C        -2.85620500170000   -1.32063020900000   -0.00085637130000
F        -2.31996787230000   -2.53502044630000    0.03141896760000
F        -4.18355495700000   -1.44020090450000   -0.01724668030000
C        -0.39897362730000    1.44911507920000   -0.02434642150000
C         0.95399688610000    1.78226627480000   -0.00962352560000
O         1.22899375030000    3.11566623760000   -0.02853019760000
C         2.57421457600000    3.52756700100000   -0.01611726860000
C         1.90842980710000    0.77596604910000    0.02380370520000
H         4.43252133320000   -2.43043946930000   -0.04874635740000
H         4.30490971970000   -0.62437525370000   -0.26077041410000
H         2.05037423200000   -2.63403813330000    0.23117770070000
H        -0.12608103390000   -1.91978769490000    0.05420210250000
H        -2.88650138410000    0.71169013710000   -0.04237870490000
H        -1.12039214820000    2.25032767130000   -0.05045791970000
H         2.54841558590000    4.61586538680000   -0.03708483290000
H         3.11477784020000    3.16269028260000   -0.89552460790000
H         3.08825253840000    3.19644475400000    0.89207185440000
H         2.95781280740000    1.01680160830000    0.04483272530000
