  23
        -42.29598518
 C         -1.2314542529        3.7368381472        0.0086995084
 C         -1.9857419983        2.6446039233       -0.0018198751
 C         -1.5208674103        1.2614868607       -0.0011030063
 C         -2.4692775944        0.2363851014       -0.0035446600
 C         -2.1026625932       -1.0991204599       -0.0022295329
 C         -3.1086281526       -2.2072714293       -0.0032694444
 C         -0.7455671210       -1.3908797266        0.0013299178
 F         -0.3726563855       -2.6919090470        0.0026063035
 C          0.2448209466       -0.4051417465        0.0027694259
 C          1.6372877999       -0.8252286588        0.0056564833
 C          2.7212141393       -0.0648078207       -0.0006177140
 F          2.7904595866        1.2617049558       -0.0109211185
 F          3.9561860797       -0.5589412613        0.0026579375
 C         -0.1706117034        0.9241902988        0.0016946831
 H         -1.6737547605        4.7181062545        0.0074343786
 H         -0.1557408395        3.7068594427        0.0191872612
 H         -3.0633981688        2.7527437162       -0.0112084088
 H         -3.5200432645        0.4882789978       -0.0062789180
 H         -4.1196530922       -1.8112225037       -0.0291006003
 H         -2.9911253900       -2.8222867459        0.8881432796
 H         -2.9570208122       -2.8525987467       -0.8674844247
 H          1.8183814823       -1.8904625572        0.0129831953
 H          0.5678054861        1.7060217596        0.0027931027
