  22
        -36.99087794
 C         -4.2146164112       -0.2641730750       -0.1395140606
 C         -3.3154119706        0.6912963067        0.0616014092
 C         -1.8662325747        0.5325198701        0.0520515746
 C         -1.2161860808       -0.6900831132       -0.1089415642
 C          0.1741333719       -0.7537916206       -0.1222904690
 C          0.8667986071       -2.0241785101       -0.3118116593
 C          0.4062068310       -3.1894954994        0.1234552638
 C          0.8779001201        0.4590269353        0.0136057866
 C          2.3645492090        0.5013021346        0.0425555486
 O          3.0526717279       -0.3697901753        0.4989534132
 O          2.9252656459        1.6106856264       -0.4802620388
 C          0.1315591228        1.6239396191        0.1997864402
 N         -1.1804913325        1.6678407624        0.2182009501
 H         -5.2691769249       -0.0502702784       -0.1143375224
 H         -3.9473020408       -1.2882108619       -0.3387747760
 H         -3.6299876337        1.7084959792        0.2504828504
 H         -1.7864867252       -1.5945126234       -0.2419515044
 H          1.8259123622       -1.9743840708       -0.8062412113
 H         -0.5143702513       -3.2757648888        0.6773189073
 H          0.9556063451       -4.1013893128       -0.0317704591
 H          2.2739483249        2.2264443558       -0.8415571392
 H          0.6173832145        2.5785484938        0.3760691300
  22
        -36.99083077
 C         -4.1499590166        1.2116359273        0.0876871585
 C         -3.3704082277        0.1395714346        0.0093775401
 C         -1.9156580565        0.2096598725        0.0484731776
 C         -1.1472405178       -0.9525845814       -0.0321856598
 C          0.2412755950       -0.8800099072        0.0096847218
 C          1.0479747797       -2.1057954145        0.0018578443
 C          0.7700129536       -3.1702047772       -0.7386139979
 C          0.8161729707        0.3972690908        0.1205791264
 C          2.2785179740        0.6718077985        0.1265225585
 O          2.7696531720        1.5710922934        0.7504588304
 O          3.0416469061       -0.1213612265       -0.6533191265
 C         -0.0441433923        1.4951766710        0.2145934005
 N         -1.3517367564        1.4138066922        0.1771472669
 H         -5.2234013756        1.1402153880        0.0576377656
 H         -3.7157528594        2.1915552937        0.1860841682
 H         -3.7899207008       -0.8529765752       -0.0889677231
 H         -1.6304534178       -1.9161399026       -0.0914401514
 H          1.9063104041       -2.1108100998        0.6629157938
 H         -0.0648214155       -3.1884450376       -1.4201235187
 H          1.3780494427       -4.0574313294       -0.7027051037
 H          2.5270432172       -0.7999629393       -1.1130174114
 H          0.3757446182        2.4870514705        0.3174703552
  22
        -36.99068380
 C         -4.2148336739       -0.2711145587       -0.0129285227
 C         -3.3104640768        0.6996944956        0.0249530429
 C         -1.8621378309        0.5345260854        0.0494509812
 C         -1.2172999508       -0.7014416096        0.0601301518
 C          0.1727821756       -0.7749175079        0.0648981597
 C          0.8626138238       -2.0621997243        0.0512543329
 C          0.3727999778       -3.1640238499       -0.5021476058
 C          0.8823563752        0.4422834194        0.0671590447
 C          2.3706147335        0.5134844112        0.0934064987
 O          3.0749865395       -0.2072430015        0.7445831188
 O          2.9095744212        1.4877303706       -0.6659950062
 C          0.1405833263        1.6248893102        0.0817900749
 N         -1.1712864308        1.6781876671        0.0689519765
 H         -5.2681615603       -0.0503521932       -0.0275500247
 H         -3.9535219934       -1.3157374576       -0.0289660807
 H         -3.6196623581        1.7358036688        0.0386589871
 H         -1.7932875937       -1.6115333719        0.0831537641
 H          1.8409288105       -2.0697393160        0.5081550502
 H         -0.5793719034       -3.1869310696       -1.0073778708
 H          0.9244890895       -4.0878835877       -0.4890489702
 H          2.2466230972        1.9913007587       -1.1570575825
 H          0.6336811444        2.5901916748        0.1368798103
  22
        -36.98989828
 C         -4.2171577964       -0.2509763259       -0.0653750231
 C         -3.3168353645        0.7148480139        0.0716974293
 C         -1.8680591162        0.5541725495        0.0897153424
 C         -1.2206203328       -0.6777490564       -0.0090624876
 C          0.1683200773       -0.7420836642        0.0171578956
 C          0.8483793222       -2.0423117323       -0.0133480488
 C          0.4576686226       -3.0646592055       -0.7620882259
 C          0.8719450352        0.4688253076        0.1337449006
 C          2.3552402339        0.5916961713        0.1257493533
 O          2.9430401042        1.4226682007        0.7603617609
 O          3.0231938912       -0.2598480327       -0.6791901254
 C          0.1286944133        1.6460731251        0.2488461826
 N         -1.1817528006        1.6930190337        0.2242162778
 H         -5.2711161228       -0.0330482179       -0.0683034924
 H         -3.9523424796       -1.2888354657       -0.1789439414
 H         -3.6295415834        1.7439196721        0.1817491555
 H         -1.7885989457       -1.5918824259       -0.0699675470
 H          1.7095189166       -2.1405130017        0.6364488350
 H         -0.3820405278       -2.9913383828       -1.4338182771
 H          0.9746992152       -4.0082870546       -0.7436251142
 H          2.4365549630       -0.8738711058       -1.1432743317
 H          0.6451111391        2.5905103331        0.3573050731
