  49
        -65.99967597
 C         -5.9182419970       -2.2913417678       -0.9551643919
 C         -5.4286732519       -1.1083660587       -0.6009986753
 C         -4.0493515635       -0.8059283331       -0.2549999296
 C         -3.6927075448        0.4929985681        0.0982713033
 C         -2.3930452511        0.8258504794        0.4243414037
 C         -1.3668379948       -0.1233709865        0.4360888785
 C         -1.7382327621       -1.4324034686        0.1029424190
 C         -3.0326175005       -1.7603719086       -0.2460681403
 S         -0.5896722940       -2.7757113909        0.1849671691
 C          0.9366464783       -1.8924266105        0.0415594422
 C          2.0301414960       -2.6316247369       -0.3618290400
 C          3.3061606997       -2.0722752007       -0.4221566354
 C          4.4883946872       -2.8159405546       -0.8259029211
 C          4.5374620945       -4.0906231556       -1.1964379257
 C          3.4204847701       -0.7320450654       -0.0618607396
 C          2.3229049357        0.0139037648        0.3193361839
 C          1.0394537342       -0.5373473600        0.3818389770
 N         -0.0605856244        0.2219253929        0.7749332563
 C          0.1741769789        1.4851954125        1.4442134377
 C          0.3706457661        2.6868734963        0.5082567238
 C          0.7126203858        3.9421426631        1.3079878570
 C          0.8374373663        5.1940168350        0.4393100093
 C          2.0478887457        5.1704720570       -0.4920471976
 C          2.1943613026        6.4842730229       -1.2501159407
 H         -6.9602246263       -2.4160571610       -1.1947405403
 H         -5.3104910495       -3.1771138900       -1.0207520512
 H         -6.0970252549       -0.2565700824       -0.5550828928
 H         -4.4467950841        1.2669191408        0.1142230549
 H         -2.1916522829        1.8522551418        0.6774852459
 H         -3.2422021444       -2.7897264838       -0.4895466400
 H          1.8723974343       -3.6698464019       -0.6067594166
 H          5.4050985182       -2.2382081075       -0.8114920493
 H          3.6654924413       -4.7203343750       -1.2331024793
 H          5.4662726118       -4.5549695701       -1.4799390758
 H          4.3899820009       -0.2551539094       -0.0841861132
 H          2.4894046086        1.0458611260        0.5752779380
 H          1.0594775737        1.3684465104        2.0763218828
 H         -0.6698167036        1.6736495923        2.1140956899
 H         -0.5356013083        2.8632819234       -0.0729109336
 H          1.1658043138        2.4689637562       -0.2040972057
 H          1.6495579598        3.7849944010        1.8484125352
 H         -0.0705947770        4.1079335668        2.0525392586
 H          0.9204610944        6.0642403665        1.0950435424
 H         -0.0721343676        5.3149220352       -0.1537114244
 H          1.9479437375        4.3555190694       -1.2109313255
 H          2.9507691759        4.9894899152        0.0961266852
 H          1.3082409954        6.6781124099       -1.8507182233
 H          3.0564675108        6.4507308541       -1.9121033939
 H          2.3254149894        7.3131616259       -0.5577132782
