  47
        -56.02996473
 C          1.3741387510       -4.1951369380        1.5793294191
 C          2.4584898751       -3.4239380701        1.5439062890
 C          2.5269365262       -2.1110489551        0.9615149551
 C          1.5586757723       -1.3690709156        0.3341266370
 C          1.9995349787       -0.1139709118       -0.1213202780
 C          1.0907538681        0.8660229735       -0.7955335077
 C          0.5618439727        1.8958759863        0.2103700814
 C         -0.2902813665        2.9869707866       -0.4381971689
 C         -1.5713853241        2.4923400597       -1.1120687619
 C         -2.5458653359        1.8207178233       -0.1471098263
 C         -3.8713287143        1.4797857763       -0.8247272233
 C         -4.8360451056        0.7895849661        0.1369257153
 C         -6.2250371546        0.5512642332       -0.4573746245
 C         -6.2581225773       -0.3811427589       -1.6696544579
 C         -5.7740722890       -1.7922805252       -1.3573538099
 C          3.3285112361        0.1180219384        0.1692411510
 C          4.1067888128        1.2858654367       -0.1356884165
 C          5.3728068767        1.4752204208        0.2279545394
 S          4.0290853737       -1.2394857224        1.0019185789
 H          1.3964962784       -5.1702539545        2.0325906298
 H          0.4337978571       -3.8822055577        1.1599936658
 H          3.3844798023       -3.7785734512        1.9779872145
 H          0.5503642780       -1.7172574308        0.1966105996
 H          0.2555497214        0.3201142658       -1.2356741056
 H          1.6185864203        1.3836680030       -1.5995361308
 H          1.4134695660        2.3699742986        0.7049745610
 H         -0.0134287359        1.3811504025        0.9815107952
 H          0.3153278672        3.5080259167       -1.1846217508
 H         -0.5593005509        3.7144448829        0.3318179484
 H         -1.3234304421        1.8006974488       -1.9194217940
 H         -2.0681527100        3.3532613258       -1.5672990058
 H         -2.7322905002        2.4877007063        0.6982686084
 H         -2.1057136487        0.9024841616        0.2461448031
 H         -3.6735810154        0.8317016917       -1.6804948444
 H         -4.3321405564        2.3963000109       -1.2015447193
 H         -4.9502924533        1.4159056610        1.0257988790
 H         -4.4068052013       -0.1589649207        0.4640591528
 H         -6.6505968520        1.5148489441       -0.7493924726
 H         -6.8665979347        0.1315026148        0.3218484092
 H         -5.6565659939        0.0404878357       -2.4765735794
 H         -7.2894493207       -0.4337397414       -2.0276212398
 H         -4.7163815909       -1.7969647918       -1.1074094127
 H         -5.9195874535       -2.4403857981       -2.2188818572
 H         -6.3284955588       -2.2078227466       -0.5183990001
 H          3.5892545572        2.0490371870       -0.7019309366
 H          5.9107028191        0.7355580678        0.7978104653
 H          5.9071799263        2.3722441980       -0.0300532559
