  39
        -53.92476783
 C          4.4804973135        2.1046126250        0.6641020531
 C          3.5454274773        0.9868032400        0.3074430396
 C          3.9554841307       -0.3329868149        0.4617412318
 C          3.1046404671       -1.3716091246        0.1276506766
 C          3.5343565448       -2.8019711106        0.2750485121
 C          1.8310039088       -1.0887748261       -0.3479995677
 C          1.3863926583        0.2238014316       -0.5038132630
 N          0.1431064707        0.5396614940       -1.0467238406
 C         -0.6480178022        1.5946621521       -0.4534315375
 C         -1.4957698145        1.0651956208        0.7102196257
 C         -2.4141969384       -0.0645086341        0.2242087704
 C         -1.5775310497       -1.1475353896       -0.4699068452
 C         -0.7142944371       -0.5021987519       -1.5604277488
 O         -3.3847920060        0.4806728608       -0.6601221578
 C         -4.6537594856        0.0164768550       -0.2649546744
 C         -4.4674671223       -0.2522696999        1.2293665891
 O         -3.1200056948       -0.6552718530        1.3070372216
 C          2.2782818974        1.2520142117       -0.1745936854
 H          5.4459948950        1.9627515928        0.1811754384
 H          4.6474560887        2.1258670996        1.7410898225
 H          4.0757086946        3.0665528856        0.3595392819
 H          4.9460492582       -0.5437342173        0.8384328644
 H          4.5131156546       -2.8674948855        0.7435479719
 H          3.5859847786       -3.2836054104       -0.7013650267
 H          2.8194901490       -3.3560915865        0.8820385277
 H          1.1899133950       -1.9223377865       -0.5874610819
 H         -1.3165784239        1.9933370974       -1.2227784558
 H         -0.0072978124        2.3983729573       -0.0962631161
 H         -2.1054252284        1.8674070326        1.1275378759
 H         -0.8509527247        0.6652137366        1.4942025493
 H         -2.2445888860       -1.8934679448       -0.9040097527
 H         -0.9608588910       -1.6273963739        0.2898364984
 H         -1.3839434729       -0.0361822752       -2.2918226187
 H         -0.1144457496       -1.2508174369       -2.0783898886
 H         -4.9102513765       -0.9080425396       -0.8008820219
 H         -5.3892640708        0.7894171995       -0.4877791014
 H         -5.0915778320       -1.0578180640        1.6155516416
 H         -4.6309317978        0.6615925124        1.8171023334
 H          1.9874261020        2.2814255322       -0.3193586614
