  23
        -33.98077018
 C          3.5022491420        1.4417613720        0.0296754636
 C          2.7850986635        0.3479959925       -0.2114853439
 C          1.3550258060        0.2619558895       -0.0810696640
 S          0.4038961262        1.7304388103        0.0425747788
 C         -1.0748718807        0.8179684545        0.0253747781
 C         -2.3611816480        1.3294337108        0.1001406746
 C         -3.4202382764        0.4459595148        0.0729825672
 C         -3.1980556331       -0.9274000063       -0.0206893156
 C         -1.9201031415       -1.4354357712       -0.0893826946
 C         -0.8290815376       -0.5636113959       -0.0749557429
 C          0.5732228827       -0.8665807333       -0.1250776096
 C          1.0644058188       -2.2322824241       -0.2045258789
 C          2.1309398638       -2.7049926051        0.4281753892
 H          4.5694970058        1.4582594027       -0.1035173215
 H          3.0414338310        2.3531095664        0.3741477845
 H          3.2680227877       -0.5612042873       -0.5457539273
 H         -2.5204574313        2.3938490072        0.1773918816
 H         -4.4311091531        0.8209719574        0.1274430915
 H         -4.0428088758       -1.6000353882       -0.0360712785
 H         -1.7573200767       -2.5008274033       -0.1515982367
 H          0.4642691328       -2.8971934903       -0.8137007228
 H          2.7212970905       -2.0940423382        1.0899578903
 H          2.4350554075       -3.7328381425        0.3249594203
