  56
        -64.42055273
 C          1.7626960624       -3.0780402791        1.1207822863
 C          1.9756051061       -2.1882674032        0.1603416857
 C          0.9678154073       -1.2689192934       -0.3643164307
 C         -0.3646500332       -1.6687186623       -0.4389318831
 C         -1.3657066532       -0.8523807425       -0.9350852140
 C         -2.7862236947       -1.3409918002       -0.9393860014
 C         -3.6109870296       -0.6545454641        0.1551319489
 C         -5.0658321007       -1.1160725229        0.1373328081
 C         -5.9070231866       -0.5030503728        1.2570965500
 C         -6.1404111447        0.9969854207        1.0893971540
 C         -7.0669026024        1.5436391704        2.1688733379
 C         -1.0277878630        0.4373245920       -1.3691312735
 C         -2.0340450715        1.3535173778       -1.9025220345
 C         -2.0115435189        2.6716353409       -1.7560707261
 C          0.3055755633        0.8345703211       -1.3013366169
 C          1.3088691345        0.0131091866       -0.8180912745
 C          2.7153756840        0.5337960776       -0.7342159004
 C          3.0860014834        0.8687649951        0.7152120477
 C          4.4907873498        1.4533862374        0.8578203599
 C          5.5992191155        0.4444716988        0.5648011732
 C          6.9842849656        1.0249690962        0.8409772364
 C          8.0909488674        0.0222400132        0.5380378482
 H          2.5414338427       -3.7386008605        1.4628639302
 H          0.8111215183       -3.1687815176        1.6175136626
 H          2.9623969303       -2.1143134300       -0.2782824318
 H         -0.6212295409       -2.6671692325       -0.1144256294
 H         -2.7994166146       -2.4206236178       -0.7743089583
 H         -3.2516666224       -1.1505115116       -1.9097178898
 H         -3.5599082297        0.4252198983        0.0089699012
 H         -3.1677896017       -0.8802878634        1.1280398293
 H         -5.0903486166       -2.2046389097        0.2358921270
 H         -5.5135673233       -0.8633868140       -0.8272067875
 H         -5.4186942502       -0.6871019514        2.2170202821
 H         -6.8776379480       -1.0054796755        1.2799022396
 H         -6.5791692061        1.1845559021        0.1064988916
 H         -5.1876574927        1.5268848169        1.1354087277
 H         -8.0355430252        1.0496471270        2.1281557273
 H         -7.2211096913        2.6122014293        2.0372784934
 H         -6.6407285980        1.3776982812        3.1560512518
 H         -2.8508188105        0.8983287227       -2.4478767261
 H         -1.2425546567        3.1723213485       -1.1916214871
 H         -2.7763747107        3.3010804070       -2.1786664438
 H          0.5679720792        1.8191863875       -1.6616123331
 H          2.8050065673        1.4370591518       -1.3417067208
 H          3.4134835635       -0.2051095227       -1.1307647621
 H          3.0033131285       -0.0333989136        1.3254265263
 H          2.3596229578        1.5910639357        1.0964839341
 H          4.6125057403        1.8167335049        1.8815298794
 H          4.5966806617        2.3120682763        0.1901497977
 H          5.5516580986        0.1330651950       -0.4804066825
 H          5.4504478156       -0.4428910669        1.1851887746
 H          7.0464710265        1.3278892875        1.8888627428
 H          7.1279601596        1.9193530601        0.2300689413
 H          7.9746104974       -0.8700746599        1.1495639310
 H          9.0674877776        0.4543256130        0.7441500957
 H          8.0614424990       -0.2746801952       -0.5082867710
