  26
        -32.77618441
 C          3.5923834579       -1.0418448471        0.4552968199
 C          2.8641510621       -0.0845125427       -0.1041737820
 C          1.4042502661       -0.0280500105       -0.0950912976
 C          0.6531860377       -1.2016467170       -0.0972014859
 C         -0.7299845251       -1.2013806433       -0.1007406246
 C         -1.4783379796       -2.5016689593       -0.0927315257
 C         -1.4043062178        0.0278714872       -0.0945586202
 C         -2.8641890835        0.0842727703       -0.1030699403
 C         -3.5924355192        1.0428785020        0.4542249785
 C         -0.6531943646        1.2014670146       -0.0968185817
 C          0.7299592040        1.2011974023       -0.1008615609
 C          1.4784868439        2.5013681934       -0.0926087360
 H          4.6682773412       -1.0326093901        0.4104104603
 H          3.1473339548       -1.8608817009        0.9951863395
 H          3.3651842804        0.7350108797       -0.6026238947
 H          1.1746205461       -2.1479249467       -0.1171551611
 H         -0.7885769740       -3.3374843275       -0.0035444281
 H         -2.0451439589       -2.6256249842       -1.0158821543
 H         -2.1787123539       -2.5389324976        0.7404085036
 H         -3.3653848803       -0.7364994180       -0.5992621953
 H         -3.1475068303        1.8633775009        0.9919504462
 H         -4.6683373465        1.0333847861        0.4095178380
 H         -1.1745398945        2.1477922307       -0.1163339544
 H          0.7888036549        3.3373487971       -0.0044325999
 H          2.0463379236        2.6248691642       -1.0151626388
 H          2.1780117910        2.5387500875        0.7412541813
  26
        -32.77424744
 C          3.5086652685       -1.1683740070        0.5481073277
 C          2.8693184506       -0.1809032714       -0.0650571136
 C          1.4186178052       -0.0088392196       -0.0885159159
 C          0.5754932974       -1.1152508189       -0.0501818104
 C         -0.8068054581       -1.0124084154       -0.0663405165
 C         -1.6217806142       -2.2716103094       -0.0632666376
 C         -1.3793853973        0.2634063129       -0.1283453804
 C         -2.8196095853        0.5244999209       -0.1379522360
 C         -3.7389258321       -0.0898137473        0.5935218022
 C         -0.5334130006        1.3709280372       -0.2060083569
 C          0.8442694156        1.2678499031       -0.1790669749
 C          1.6910263090        2.5049195984       -0.2316602125
 H          4.5824965441       -1.2461101938        0.5254426460
 H          2.9899958313       -1.9266884954        1.1104721869
 H          3.4430968648        0.5743241843       -0.5859603902
 H          1.0187335991       -2.1006084834       -0.0289610070
 H         -1.0679293808       -3.0761268943       -0.5435289084
 H         -2.5645971976       -2.1296792329       -0.5860752405
 H         -1.8407684019       -2.5842590525        0.9579765679
 H         -3.1208900052        1.3460007862       -0.7785283521
 H         -3.4954039721       -0.8715384301        1.2911688443
 H         -4.7772258893        0.1930251198        0.5413723965
 H         -0.9825730482        2.3532436883       -0.2710581387
 H          1.0668520555        3.3949486923       -0.2069949302
 H          2.2819478824        2.5287237690       -1.1476731825
 H          2.3772383465        2.5389143569        0.6133235218
  26
        -32.77419916
 C          3.5543148572       -1.2140592336       -0.1105786210
 C          2.8558889207       -0.1528604535        0.2707699742
 C          1.4118465205        0.0042603531        0.1103752713
 C          0.5707693720       -1.1031432404        0.1539361754
 C         -0.8068446718       -1.0102072647        0.0291125467
 C         -1.6182522297       -2.2713661581        0.0591756862
 C         -1.3755326166        0.2556339600       -0.1533769793
 C         -2.8117744420        0.5066195796       -0.2844443611
 C         -3.7811450895       -0.0641557922        0.4169853205
 C         -0.5285945941        1.3623753704       -0.2323138221
 C          0.8427205775        1.2705669987       -0.0900430875
 C          1.6926317425        2.5030837858       -0.1819373806
 H          4.6186306368       -1.2746246404        0.0417805739
 H          3.0975752520       -2.0550845000       -0.6049418027
 H          3.3718473750        0.6800767565        0.7304021027
 H          1.0093089689       -2.0783316539        0.3107008414
 H         -1.0310013093       -3.1029162746       -0.3258403164
 H         -2.5218558175       -2.1702306200       -0.5371270807
 H         -1.9081585705       -2.5165186877        1.0811649475
 H         -3.0665697869        1.2825942351       -0.9978348146
 H         -3.5882384341       -0.7972447471        1.1802130709
 H         -4.8132363656        0.2084219166        0.2710792514
 H         -0.9730433278        2.3355579972       -0.3944293304
 H          1.0852031154        3.3662705963       -0.4432488599
 H          2.4679902510        2.3820514197       -0.9370665006
 H          2.1797090687        2.7062158368        0.7721933180
  26
        -32.77233918
 C          3.7561641781       -0.0479607943        0.6277666089
 C          2.7979763130       -0.6281793990       -0.0812288112
 C          1.3843688678       -0.2493364326       -0.1104147151
 C          0.4494912093       -1.2825745290       -0.1477483183
 C         -0.9190762493       -1.0714558708       -0.1332326107
 C         -1.8339471570       -2.2582747813       -0.1921548862
 C         -1.3843535247        0.2493499513       -0.1103283631
 C         -2.7979576246        0.6282013496       -0.0811312902
 C         -3.7562317312        0.0478723330        0.6276643314
 C         -0.4494758296        1.2825903386       -0.1475947240
 C          0.9190949008        1.0714690010       -0.1331685815
 C          1.8339571391        2.2583003534       -0.1919938760
 H          4.7679910713       -0.4176743026        0.6102940903
 H          3.5700674204        0.7923305637        1.2730734739
 H          3.0376714151       -1.5087869647       -0.6668388224
 H          0.8144567678       -2.3010348199       -0.1722759321
 H         -1.3522317380       -3.0755426309       -0.7257053885
 H         -2.7666020463       -2.0094648808       -0.6927704516
 H         -2.0683248286       -2.6117285914        0.8122092412
 H         -3.0375836738        1.5089594157       -0.6665456130
 H         -3.5702524857       -0.7925808283        1.2727906587
 H         -4.7680439979        0.4176167622        0.6101462781
 H         -0.8144336938        2.3010571647       -0.1719765772
 H          1.3523625041        3.0754765039       -0.7257944483
 H          2.7667498218        2.0094496256       -0.6923252077
 H          2.0680484358        2.6119048706        0.8123850839
