  20
        -39.12551226
 C         -2.5680658924       -2.8693779977        0.0224520669
 C         -2.9210161035       -1.5902050190       -0.0149638214
 C         -2.0277216807       -0.4364741898       -0.0092197906
 C         -2.5840941446        0.8449415256       -0.0025118047
 C         -1.7790735386        1.9671818240        0.0045140233
 C         -0.4081706620        1.8098878451        0.0035436416
 F          0.3672282939        2.9151512922        0.0100933640
 C          0.1986816265        0.5492387002       -0.0045561540
 C          1.6511367619        0.4787807031       -0.0062262996
 C          2.4176933613       -0.6011299466       -0.0016716952
 F          2.0364670189       -1.8733319901        0.0052681146
 F          3.7460067135       -0.5503460941       -0.0030376956
 C         -0.6403033911       -0.5622948507       -0.0113426793
 H         -3.3085365510       -3.6504519220        0.0155890377
 H         -1.5430108693       -3.1949885524        0.0630797161
 H         -3.9737541141       -1.3379407097       -0.0502085679
 H         -3.6576107888        0.9612142879       -0.0016827555
 H         -2.1976482453        2.9612320258        0.0104013113
 H          2.1778178902        1.4223323422       -0.0100657419
 H         -0.2048917587       -1.5460425349       -0.0212812676
  20
        -39.12542830
 C         -3.8911609764       -2.1195287794       -0.0480276434
 C         -2.5779312322       -1.9412592279        0.0275179790
 C         -1.8694671763       -0.6657974247        0.0174999012
 C         -2.5261075663        0.5667249444        0.0119977403
 C         -1.8075464794        1.7455710661        0.0013007414
 C         -0.4277090548        1.6981716933       -0.0043647487
 F          0.2560823675        2.8622270115       -0.0152016182
 C          0.2777202587        0.4909074478        0.0027319554
 C          1.7309053523        0.5344410556       -0.0027587063
 C          2.5791587110       -0.4826147719        0.0002298786
 F          2.2980113069       -1.7802575536        0.0096471219
 F          3.8994601580       -0.3282686659       -0.0061504748
 C         -0.4757291892       -0.6810296057        0.0154653074
 H         -4.3203788352       -3.1063572141       -0.0352409841
 H         -4.5901824304       -1.3049698024       -0.1284833234
 H         -1.9344688139       -2.8091824175        0.0981215455
 H         -3.6029934672        0.6084723544        0.0202011210
 H         -2.3015806293        2.7044843682       -0.0020582067
 H          2.1819074382        1.5163697546       -0.0108930712
 H          0.0286329830       -1.6337672860        0.0216720469
  20
        -39.12180338
 C         -4.3984838658       -1.8398523450        0.0233113949
 C         -3.1212561132       -1.8827142241       -0.3355352605
 C         -2.1375161463       -0.8171333646       -0.1785128100
 C         -2.4716924087        0.4687845915        0.2525270321
 C         -1.5037724384        1.4449103599        0.3706207311
 C         -0.1861204892        1.1426101737        0.0782511780
 F          0.7275354114        2.1282326294        0.1529125282
 C          0.1980527009       -0.1317841981       -0.3371162668
 C          1.5804173067       -0.4860476303       -0.6502440322
 C          2.6572069430       -0.0647919531       -0.0061862908
 F          2.7048868425        0.7085764455        1.0636556579
 F          3.8919788409       -0.4326065714       -0.3385346699
 C         -0.8039001724       -1.0876942428       -0.4767621385
 H         -5.0490851566       -2.6832792045       -0.1303395844
 H         -4.8477499749       -0.9780209656        0.4856620090
 H         -2.7327149859       -2.7889905881       -0.7832650974
 H         -3.4958938208        0.7146663621        0.4808734679
 H         -1.7529553698        2.4471703598        0.6818959851
 H          1.7420328387       -1.1785242671       -1.4624051293
 H         -0.5270603058       -2.0769804302       -0.8118782323
