23
 energy: -33.592127399226 gnorm: 0.000026876642 xtb: 6.4.1 (23d549d)
C        -3.55876407630000    1.12804869090000   -0.31555354850000
C        -2.34819576800000    1.34283076910000    0.18368849880000
C        -1.16906344650000    0.48876314300000    0.09847067610000
N        -0.01947463080000    1.15804222450000    0.21994104170000
C         1.14286457120000    0.53230639720000    0.14428217430000
C         2.32394953290000    1.38290087340000    0.22603985090000
C         3.50574779520000    1.14651263340000   -0.33149727700000
C         1.15787687630000   -0.88080637780000    0.03640480910000
N         2.29927939530000   -1.62901967760000    0.01355660770000
N         0.01540095660000   -1.55627191500000   -0.04513479850000
C        -1.14298812170000   -0.90855345290000   -0.05010232340000
C        -2.35218309500000   -1.78112310170000   -0.14764577120000
H        -4.33829047420000    1.86239282860000   -0.19784309010000
H        -3.82283716250000    0.25047647500000   -0.87656354850000
H        -2.13753174350000    2.28087498780000    0.68192888010000
H         2.14856100050000    2.30988253180000    0.75616566090000
H         3.69967326960000    0.27948046970000   -0.94012557020000
H         4.31497965670000    1.85101157740000   -0.23631252440000
H         3.11750913370000   -1.23730729770000    0.45055586190000
H         2.14884571660000   -2.61825407320000    0.13922099080000
H        -2.06128832230000   -2.80529107870000    0.07241722970000
H        -2.75822747050000   -1.75214751980000   -1.15791611440000
H        -3.12153437200000   -1.45538901700000    0.54880165060000
