  38
        -52.54573453
 C          5.9212191711       -0.5953100251        0.5813151583
 C          4.8174586243       -1.3327991357        0.6130247577
 C          3.4590808690       -0.8903729888        0.3277645316
 C          2.4197565335       -1.8176803408        0.3763650821
 C          1.1154569937       -1.4516871348        0.1029083702
 C          0.8073556999       -0.1379056224       -0.2256868149
 O         -0.4489025031        0.3099307018       -0.5032423545
 C         -1.5273388760       -0.5945187436       -0.4515999292
 C         -2.7903540428        0.1978420766       -0.8410284028
 C         -3.1672145705        1.2299042473        0.2292988462
 C         -3.8202031657        0.5658239407        1.4397078729
 C         -4.9825591681       -0.3010076648        0.9631592033
 C         -4.4723133391       -1.2975035818       -0.0758682581
 O         -3.8645506836       -0.6541698422       -1.1779007383
 C          1.8383325642        0.8256751222       -0.2710302659
 C          1.5031457537        2.2024539545       -0.6205149464
 C          2.2388866511        3.2745168368       -0.3558076477
 C          3.1381911231        0.4256278285       -0.0000715051
 H          6.8838579342       -1.0199566272        0.8090532909
 H          5.9177937682        0.4508095678        0.3281593381
 H          4.8991998634       -2.3816661286        0.8731676238
 H          2.6341950954       -2.8469683607        0.6268432667
 H          0.3428410012       -2.2036603922        0.1448327512
 H         -1.6181474141       -1.0177784433        0.5566332444
 H         -1.3920620724       -1.4131265536       -1.1717505790
 H         -2.5553502707        0.7199597627       -1.7762949688
 H         -3.8733261068        1.9373914263       -0.2097689466
 H         -2.2671768895        1.7729775074        0.5182238175
 H         -4.1743927539        1.3298719408        2.1339211331
 H         -3.0943541113       -0.0534730994        1.9712947677
 H         -5.7442991681        0.3316109987        0.5036733177
 H         -5.4349022525       -0.8417554141        1.7953218691
 H         -5.2970342724       -1.8699550566       -0.5066981835
 H         -3.7704241291       -2.0009641447        0.3953554269
 H          0.5502036201        2.3176609094       -1.1187716145
 H          3.1767362308        3.2207204545        0.1709185688
 H          1.9191439953        4.2594924568       -0.6499304994
 H          3.9227634851        1.1617517800       -0.0619712276
