  20
        -30.36611280
 C         -2.5281364373        1.4276261628       -0.0001849794
 C         -1.2183612476        0.7042739246        0.0000182018
 C         -0.0072817450        1.3735196824        0.0000465724
 C          1.2056390350        0.6956548141        0.0000457800
 O          2.3952147054        1.3747042112        0.0001050793
 C          1.2251360789       -0.6981198256       -0.0000603939
 C          2.5179426983       -1.4566701105       -0.0001558053
 C          0.0105474592       -1.3691949361       -0.0000018622
 C         -1.1982643296       -0.6924084665        0.0000557778
 O         -2.3954821403       -1.3546728339        0.0001214490
 H         -2.3805986349        2.5041405786        0.0014114193
 H         -3.1097831559        1.1441664973        0.8756002299
 H         -3.1081080742        1.1466339080       -0.8778931804
 H         -0.0061095303        2.4564615515        0.0000681590
 H          2.2157885587        2.3216610364        0.0001830076
 H          3.3547112403       -0.7655661373       -0.0023644291
 H          2.5839302437       -2.0947691525       -0.8804591656
 H          2.5860011923       -2.0914296324        0.8824180357
 H          0.0138808726       -2.4520685350       -0.0000293948
 H         -2.2315251746       -2.3046566996        0.0002902360
