  24
        -42.11413768
 C         -4.0000643964        0.5470520012       -0.0288781202
 C         -3.0714653534       -0.3988241904        0.0569131615
 C         -1.6235473394       -0.2364557884        0.0401823599
 C         -0.8171631892       -1.3753377136        0.0734931820
 C          0.5670597464       -1.3383719867        0.0608050095
 C          1.3755133772       -2.5533105450        0.1055894054
 C          0.9668873771       -3.7716555011       -0.2250847952
 C          1.2318703327       -0.0894163426        0.0268226908
 O          2.5827352859       -0.1334985039        0.0166373633
 C          3.3465614134        1.0549612351        0.0004625663
 C          0.4373975288        1.0544431021       -0.0050922668
 F          0.9767652955        2.2984241591       -0.0413972261
 C         -0.9507781547        0.9829177097       -0.0006873252
 F         -1.6107802635        2.1546770758       -0.0283587078
 H         -5.0455492777        0.2897857624       -0.0065928494
 H         -3.7742197800        1.5931378014       -0.1242131270
 H         -3.3846668096       -1.4319983480        0.1459026687
 H         -1.3024385131       -2.3372067654        0.1252530253
 H          2.3976404909       -2.3993290027        0.4206166676
 H         -0.0273492951       -3.9761629960       -0.5842483792
 H          1.6289234566       -4.6175269962       -0.1605363796
 H          4.3843729097        0.7247311769        0.0094355058
 H          3.1553482836        1.6718209006        0.8816569824
 H          3.1622176688        1.6420278365       -0.9021316371
