  24
        -41.28001985
 C          4.3279850124       -1.2049577994        0.0350536899
 C          3.0854181425       -1.6711339606       -0.0025547368
 C          1.8541000028       -0.8892926395       -0.0175869661
 C          1.8470601825        0.5042781763       -0.0700021915
 C          0.6768060812        1.2698203020       -0.0856797157
 C          0.6967738877        2.7281020845       -0.1517326003
 C          1.7033128579        3.5041838693        0.2284052214
 C         -0.5233206831        0.5648566649       -0.0530813719
 C         -0.5409869369       -0.8387049516       -0.0020233105
 C          0.6306518977       -1.5689669869        0.0153916660
 C         -1.9391419539       -1.2785835778        0.0286004777
 O         -2.3974467099       -2.3902557071        0.0674863808
 C         -2.7535722594        0.0434248164        0.0006611813
 O         -3.9472563178        0.1901312587        0.0177005026
 N         -1.8236657896        1.0476384633       -0.0485017171
 H          5.1718634624       -1.8726021858        0.0458991997
 H          4.5620938299       -0.1545610793        0.0587302962
 H          2.9302235352       -2.7425213095       -0.0178277734
 H          2.7884435693        1.0264889941       -0.1233389015
 H         -0.2034230650        3.1871777157       -0.5408985012
 H          2.6116923197        3.1077723468        0.6484457546
 H          1.6466870028        4.5756114765        0.1467479478
 H          0.5921991007       -2.6469211322        0.0527204469
 H         -2.0680002995        2.0257642999       -0.0603247903
