  24
        -42.12762988
 C         -3.5927072506       -2.8265616278       -0.2940249921
 C         -3.5545952194       -1.5226717410       -0.0457904821
 C         -2.3754525229       -0.6674708748       -0.0365579473
 C         -2.5165845519        0.6841047549        0.2759825175
 C         -1.4339917202        1.5414610169        0.2808331802
 C         -0.1574298205        1.0730345509       -0.0121116657
 O          0.9491452003        1.8522994576       -0.0880560687
 C          0.8384143729        3.2262578855        0.1923504620
 C          0.0134904425       -0.2959005049       -0.2989393902
 C          1.3269651527       -0.8641023041       -0.5977196611
 C          2.4707926172       -0.5617704396       -0.0078257795
 F          2.6740110782        0.2725332412        0.9997353421
 F          3.6319491829       -1.1329721077       -0.3353048470
 C         -1.0937292948       -1.1299322283       -0.3282311063
 H         -4.5210175213       -3.3710304755       -0.2763946466
 H         -2.7139164862       -3.4045217997       -0.5222039490
 H         -4.4803883646       -1.0071310002        0.1797627412
 H         -3.4958308817        1.0759527750        0.5108962948
 H         -1.5933016044        2.5827521993        0.5120464381
 H          1.8448461050        3.6268199462        0.0839217754
 H          0.4901232407        3.4000562267        1.2149444687
 H          0.1693940092        3.7284124207       -0.5141336831
 H          1.3698828745       -1.6350284325       -1.3529961948
 H         -0.9403663245       -2.1699309972       -0.5703023100
