  33
        -39.14935005
 C          5.2903628745        0.3395218020        1.0027597918
 C          4.2924450909        0.2111212133       -0.1418199418
 C          2.8985523295        0.6767332435        0.2740903258
 C          1.8778677270        0.6273703334       -0.8641772267
 C          1.4569238478       -0.7834655861       -1.2770448014
 C          0.5494961044       -1.4731170443       -0.2498618218
 C         -0.7621919940       -0.7645905507       -0.1074274872
 C         -1.7433484078       -0.7759111092       -1.1376949964
 C         -2.8597960836       -0.0645311563       -0.8488267883
 C         -4.0759489340        0.1423583981       -1.6795590635
 S         -2.7362792630        0.6503653472        0.7295453717
 C         -1.1549790942       -0.0344980580        0.9726261743
 C         -0.4349282000        0.2289470449        2.2506957212
 H          6.2772370796        0.0052083463        0.6909755223
 H          4.9766574427       -0.2639512664        1.8521895277
 H          5.3663131222        1.3746083571        1.3294872465
 H          4.2550686277       -0.8307041919       -0.4649325099
 H          4.6339009783        0.8095860147       -0.9898231072
 H          2.9708492195        1.7081841428        0.6294492585
 H          2.5532005511        0.0669685964        1.1106502585
 H          2.3037842184        1.1353097936       -1.7331245570
 H          0.9833113647        1.1801744677       -0.5682288830
 H          2.3412117185       -1.4011873407       -1.4414089776
 H          0.9191744667       -0.7199420798       -2.2256312786
 H          1.0535558398       -1.5256183867        0.7148134974
 H          0.3608408854       -2.4964627153       -0.5863884280
 H         -1.6111649230       -1.3090137340       -2.0634282484
 H         -3.9684100192       -0.3778216547       -2.6286373215
 H         -4.2333998245        1.2029257972       -1.8756565923
 H         -4.9611824129       -0.2368722830       -1.1690046078
 H         -1.1192942691        0.6449545796        2.9860658007
 H          0.3781763723        0.9400099183        2.0996958102
 H         -0.0122532592       -0.6917564245        2.6517444084
