17
 energy: -32.835348529125 gnorm: 0.000068637470 xtb: 6.5.0 (unknown)
C            2.70680226800000       -2.64029586730000        0.15903722730000
C            1.57827651150000       -2.02812610800000       -0.17725466190000
C            1.34665774640000       -0.59677283670000       -0.07760271450000
C            2.33946091970000        0.33991500750000       -0.06391620740000
S            1.74636198710000        1.94580848160000        0.02594105060000
C            0.13151593560000        1.38198594560000        0.05212075780000
C            0.04643824880000        0.01756051850000       -0.00922060930000
C           -1.18400569350000       -0.74304622810000        0.02597621210000
C           -2.41660550640000       -0.25692046430000        0.00981164650000
F           -2.77939718280000        1.02022149860000       -0.05035550760000
F           -3.50736901370000       -1.01955510810000        0.05130997760000
H            2.82183418630000       -3.70462371650000        0.04994568850000
H            3.54987008370000       -2.10733994990000        0.56375512830000
H            0.75423126950000       -2.61348504100000       -0.56234165980000
H            3.39622797280000        0.17662141770000       -0.12768939330000
H           -0.66701882140000        2.09233252560000        0.11946242090000
H           -1.10664335530000       -1.81760701100000        0.07956673140000
