  16
        -24.66539108
 C         -3.1945247020        1.0640767206       -0.0015499326
 C         -2.6410402376       -0.1449806203        0.0016156789
 C         -1.2281928152       -0.4024457944        0.0008412462
 C         -0.6055580523       -1.6290600914        0.0005803052
 N          0.7336443521       -1.6130100508       -0.0005616069
 C          1.2174281263       -0.4123010761       -0.0008404389
 C          2.6210331765       -0.1134794544       -0.0015564932
 C          3.1335123527        1.1135908387        0.0018919717
 S         -0.0191641160        0.8439002432       -0.0001845983
 H         -4.2618284947        1.1966951081       -0.0008964400
 H         -2.5924859009        1.9578958934       -0.0051471315
 H         -3.2582253724       -1.0345430423        0.0048417547
 H         -1.1168594450       -2.5754173877        0.0010619043
 H          3.2547464133       -0.9895854774       -0.0048426834
 H          2.5031720571        1.9880833386        0.0056086171
 H          4.1958004132        1.2809318943        0.0013440429
