  37
        -57.02812084
 C         -3.1242292749        1.9067378409        2.6946001735
 C         -4.1113189466        1.7637703124        1.8194247440
 C         -3.9809450923        0.9791285875        0.5955734514
 C         -5.0496523960        0.8685483678       -0.2999048661
 C         -4.8753116534        0.1263276925       -1.4538786678
 C         -3.6571622967       -0.4912625105       -1.6800751158
 C         -2.6484135969       -0.3390094065       -0.7252920469
 C         -1.3235174565       -0.9668803725       -0.8951584647
 C         -1.1716577540       -2.1982896664       -1.5362608002
 C          0.1025994205       -2.7275147399       -1.6587208176
 C          1.1761151076       -2.0247804272       -1.1434432347
 C          0.9268169830       -0.8072293750       -0.5066565031
 C          2.0229247613       -0.0203586498        0.0779215104
 C          1.7512993863        1.1724266387        0.7510311316
 C          2.8138542805        1.8762309483        1.2885452030
 C          4.0969695430        1.3788342430        1.1417508652
 C          4.2797334336        0.1761283413        0.4525163067
 C          5.5825162811       -0.4455748397        0.2342129138
 C          6.7574660311        0.0114394614        0.6476487921
 N          3.2534159776       -0.4968506722       -0.0622667271
 N         -0.2941988208       -0.3013211733       -0.3926251583
 N         -2.8157405336        0.3818047259        0.3717870599
 H         -3.2342643628        2.4901481340        3.5927094240
 H         -2.1755376427        1.4299545909        2.5175231808
 H         -5.0738731569        2.2336034017        1.9756230198
 H         -5.9884725919        1.3601073301       -0.0928020168
 H         -5.6779303472        0.0317448671       -2.1720899682
 H         -3.4846352735       -1.0571148456       -2.5823036810
 H         -2.0301913532       -2.7360678880       -1.9080366864
 H          0.2527634391       -3.6798995153       -2.1478417015
 H          2.1885850374       -2.3868814445       -1.2112937968
 H          0.7303842016        1.5070704744        0.8316772273
 H          2.6460236903        2.8039682250        1.8176279442
 H          4.9403442027        1.9106072180        1.5521027532
 H          5.5246276266       -1.3692961372       -0.3256762594
 H          6.8658235150        0.9245498859        1.2081935179
 H          7.6695189029       -0.5205014571        0.4371629744
