  33
        -39.14994492
 C          5.9093410783       -0.2391123599        0.9455376083
 C          5.0517753267        0.2026934993       -0.2339981610
 C          3.5648884482        0.2070180056        0.1137555146
 C          2.7050818288        0.6388468632       -1.0721938675
 C          1.2217009165        0.7734739418       -0.7302803074
 C          0.5525617439       -0.5667830612       -0.4052208532
 C         -0.9185991675       -0.3893639030       -0.1902052281
 C         -1.8746828289       -0.5687362295       -1.2274797466
 C         -3.1544400505       -0.3322004065       -0.8492023849
 C         -4.3992333588       -0.4238832922       -1.6578575547
 S         -3.2211484961        0.1298406437        0.8242229739
 C         -1.4938677336       -0.0078988778        0.9836476984
 C         -0.8504359050        0.3033133122        2.2895273452
 H          6.9631586671       -0.2347157382        0.6767967505
 H          5.6394299537       -1.2457515436        1.2580096010
 H          5.7682549638        0.4302875882        1.7915520534
 H          5.2218126613       -0.4698429805       -1.0780839413
 H          5.3528650843        1.2056617759       -0.5456092483
 H          3.3931356029        0.8887265884        0.9505224488
 H          3.2763740762       -0.7953298500        0.4356022167
 H          2.8249393925       -0.0801882660       -1.8863678764
 H          3.0670381268        1.6054566559       -1.4322049257
 H          0.7017054966        1.2215365558       -1.5806871147
 H          1.1037106424        1.4478920042        0.1204457668
 H          1.0069386273       -0.9975522503        0.4883194305
 H          0.7120085829       -1.2577807585       -1.2356458898
 H         -1.6032605891       -0.8704896376       -2.2244466187
 H         -4.1582768369       -0.7247094911       -2.6748447693
 H         -4.9119961644        0.5374461883       -1.6874734059
 H         -5.0851692369       -1.1539497393       -1.2283175251
 H         -1.5227128730        0.0652122210        3.1111606736
 H         -0.6018826927        1.3640087317        2.3547911489
 H          0.0683985999       -0.2678676393        2.4075392358
