  37
        -57.03410560
 C         -7.0628416415       -0.4516906585       -0.0819039966
 C         -5.7870780409       -0.8152853793       -0.1039425772
 C         -4.6282954455        0.0663634403        0.0025215883
 C         -4.7170727171        1.4553277096        0.1369436793
 C         -3.5494313355        2.1917770311        0.2284716588
 C         -2.3324693083        1.5358936071        0.1828804773
 C         -2.3324277875        0.1465914956        0.0463726207
 C         -1.0684597316       -0.6038156795       -0.0049378900
 C         -1.0720523150       -1.9996884488       -0.0406274903
 C          0.1414935631       -2.6629479147       -0.0804716848
 C          1.3101313704       -1.9224732083       -0.0851922834
 C          1.2185575924       -0.5295561374       -0.0519346166
 C          2.4326065689        0.3012732179       -0.0631511507
 C          2.3419628190        1.6919379999       -0.1582273863
 C          3.5118613505        2.4290551830       -0.1696526187
 C          4.7230176081        1.7649162770       -0.0851679751
 C          4.7231483619        0.3694900436        0.0091469248
 C          5.9820789800       -0.3631431460        0.1047182867
 C          6.0576691102       -1.6813012684        0.2351472286
 N          3.5946812953       -0.3332026996        0.0167776252
 N          0.0535694581        0.1066743195       -0.0122537207
 N         -3.4540363919       -0.5576536039       -0.0390667483
 H         -7.8523831644       -1.1784584291       -0.1681859273
 H         -7.3778443748        0.5729017578        0.0217956777
 H         -5.5200368165       -1.8581229856       -0.2095062684
 H         -5.6768839812        1.9451377762        0.1691684416
 H         -3.5894239431        3.2669440568        0.3347683964
 H         -1.3938491988        2.0596054891        0.2520513113
 H         -2.0150284605       -2.5208988932       -0.0352243995
 H          0.1759554007       -3.7430498026       -0.1076107400
 H          2.2839273128       -2.3821721818       -0.1161635122
 H          1.3710202681        2.1535029588       -0.2237692639
 H          3.4820941891        3.5071888820       -0.2441066508
 H          5.6561397191        2.3082580275       -0.0906000158
 H          6.8773658202        0.2438267015        0.0659222248
 H          5.1620778306       -2.2763330075        0.2763475257
 H          7.0001547408       -2.1965922240        0.3049840129
