  51
        -58.13279130
 C         -7.3001541882       -0.3444906942       -0.3302627788
 C         -7.3295944517        0.9373414692        0.4943247746
 C         -5.9404113992        1.3957677108        0.9394042180
 C         -5.0586613080        1.8468842281       -0.2233856773
 C         -3.7605970834        2.5157516707        0.2311198578
 C         -2.8272711307        1.6202888859        1.0487727575
 C         -2.3821067681        0.3369318179        0.3451229000
 C         -1.6584568058        0.5472056689       -0.9865930955
 C         -0.3973817513        1.4086401947       -0.9074835772
 C          0.6890975561        0.8117376515       -0.0169034968
 C          1.9762968919        1.6298154274       -0.0725791334
 C          3.0702273805        1.0502655658        0.8325770222
 C          3.4761804603       -0.3282189262        0.4094207965
 C          3.0069509110       -1.5053047115        1.0554413266
 C          3.4671202906       -2.6582026257        0.5113792641
 C          3.1890576868       -4.0604488825        0.9218696901
 S          4.5106819393       -2.3236380154       -0.8368612989
 C          4.3024609001       -0.6076046649       -0.6364739099
 C          4.9861424560        0.3273259843       -1.5715351594
 H         -8.3125170510       -0.6730285562       -0.5550609607
 H         -6.7970791040       -1.1380716153        0.2186013850
 H         -6.7780206952       -0.1915175204       -1.2711018249
 H         -7.9427125664        0.7695966099        1.3834105772
 H         -7.8035972652        1.7316292173       -0.0873150448
 H         -5.4559752022        0.5778027301        1.4756658631
 H         -6.0541422825        2.2299271546        1.6369042614
 H         -5.6183625764        2.5658297340       -0.8281267617
 H         -4.8236454960        0.9955344716       -0.8621169302
 H         -4.0109275470        3.3894340099        0.8394459597
 H         -3.2286809024        2.8782659425       -0.6509156838
 H         -3.3241795214        1.3435283270        1.9810655911
 H         -1.9459271000        2.2050041968        1.3205604623
 H         -3.2547982743       -0.2933629147        0.1621268856
 H         -1.7289053283       -0.2161149205        1.0235012296
 H         -2.3463450121        1.0030857114       -1.7016109069
 H         -1.3846577698       -0.4349069105       -1.3816752356
 H         -0.6519978242        2.4079460185       -0.5495149197
 H          0.0021386681        1.5198687934       -1.9193674027
 H          0.8981688867       -0.2110199415       -0.3385303415
 H          0.3400538519        0.7728246571        1.0165379608
 H          1.7662872460        2.6562288924        0.2388851491
 H          2.3412949758        1.6618059679       -1.1011094228
 H          2.7029986583        1.0123275433        1.8601438476
 H          3.9383670699        1.7141266539        0.8097626548
 H          2.3457660081       -1.4802997235        1.9043966768
 H          2.5218090532       -4.0690126391        1.7806748352
 H          4.1124420011       -4.5743395623        1.1887372915
 H          2.7223350014       -4.6158079139        0.1083178984
 H          5.9393850659       -0.0867183139       -1.8940695687
 H          5.1621066299        1.2865143561       -1.0884819452
 H          4.3775666086        0.4999916619       -2.4608889944
