17
 energy: -32.832019049350 gnorm: 0.000038132255 xtb: 6.4.1 (23d549d)
C        -1.11624600670000   -2.41730320440000   -0.11560573750000
C        -1.52773642140000   -1.37249320230000    0.58851644690000
C        -1.26600555410000    0.02151144470000    0.25995975110000
C        -2.27134299280000    1.01064455500000    0.44100466260000
C        -1.91832829140000    2.23426209360000   -0.01908530290000
S        -0.33499510910000    2.24230425520000   -0.68019664370000
C        -0.13251236340000    0.54845461690000   -0.32091816380000
C         1.16222718260000   -0.02146550440000   -0.60346307950000
C         1.78469755320000   -0.96486955380000    0.08974065530000
F         1.33943309980000   -1.59875789360000    1.16574129820000
F         2.99483442250000   -1.42371371450000   -0.22368406370000
H        -1.37928600150000   -3.42200991770000    0.16466269960000
H        -0.51043212860000   -2.30815302420000   -0.99971616760000
H        -2.17161944350000   -1.51871257680000    1.44623171950000
H        -3.22810702940000    0.79384799740000    0.88187485050000
H        -2.49080854020000    3.14041478630000   -0.01146221750000
H         1.72081822180000    0.41703269860000   -1.41788237820000
