  20
        -30.66691310
 C         -3.8605636671        0.5686754695       -0.0134663090
 C         -3.0409454656       -0.4761128945        0.0159959440
 C         -1.5858607816       -0.4403809034        0.0086231457
 C         -0.8699467502       -1.6401087619        0.0097979020
 C          0.5068701941       -1.6481800551        0.0018948424
 C          1.2612638305       -0.4694569393       -0.0045913316
 C          2.7132750560       -0.5707403915       -0.0101125649
 C          3.6016103241        0.4171853338        0.0173762752
 C          0.5240393897        0.7186514529       -0.0055285476
 F          1.1498027605        1.9175117477       -0.0146656205
 C         -0.8535423147        0.7460756546        0.0004451585
 H         -4.9291582138        0.4400598007       -0.0056353766
 H         -3.5100204579        1.5856510303       -0.0477175071
 H         -3.4631800019       -1.4731593270        0.0466772924
 H         -1.4076775289       -2.5771926348        0.0157767990
 H          1.0311653335       -2.5931037522        0.0021832852
 H          3.0724428901       -1.5931291009       -0.0370141814
 H          3.3310263044        1.4565865661        0.0477226970
 H          4.6574450526        0.2039457062        0.0108592016
 H         -1.3429807179        1.7065948560        0.0000720556
