20
 energy: -36.468236604456 gnorm: 0.000042144012 xtb: 6.4.1 (23d549d)
C        -0.84303420070000   -2.52469856710000   -0.71722445270000
C        -1.53912260970000   -1.69473515790000    0.04780026660000
C        -1.38517629140000   -0.25527080740000    0.08707883580000
C        -2.43000948510000    0.65996287080000    0.31958566370000
N        -2.01580395750000    1.90464655100000    0.20344864380000
N        -0.72709160420000    1.84383773630000   -0.09674506280000
C         0.03188725100000    3.04946064160000   -0.25681341880000
C        -0.27954286120000    0.56087657770000   -0.17169492520000
C         1.11439965010000    0.28756216500000   -0.43212010570000
C         1.81460062580000   -0.71379548860000    0.08022772140000
F         1.38845373560000   -1.63686150220000    0.92755193680000
F         3.10071541940000   -0.92319837370000   -0.19629176200000
H        -1.03340285480000   -3.58345926240000   -0.71514499090000
H        -0.06820856830000   -2.17981854230000   -1.38128608340000
H        -2.34038376450000   -2.07532667040000    0.66837348240000
H        -3.45443079880000    0.44596834880000    0.54948865800000
H        -0.64129948780000    3.88178616290000   -0.06283330230000
H         0.42128534230000    3.13321828280000   -1.27385922620000
H         0.86334990140000    3.08231598550000    0.44960891360000
H         1.65197406840000    0.97399104580000   -1.06988531000000
