  24
        -37.89929305
 C         -3.5803173077        1.3353349500        0.1093051288
 C         -2.9356838490        0.1800339610       -0.0080326668
 C         -1.4930807093       -0.0129480050       -0.0137934045
 C         -0.5751699454        1.0399836329       -0.0128339079
 C          0.7923593479        0.8216928994       -0.0186940936
 O          1.7160518263        1.8237058918       -0.0161789772
 C          1.2747388587        3.1586538138       -0.0185549178
 C          1.3037513427       -0.4968964710       -0.0228709572
 C          2.7439016673       -0.7039382349       -0.0312383691
 C          3.3744938444       -1.8626756873        0.1263483853
 C          0.3923938767       -1.5476650061       -0.0304605289
 C         -0.9626228495       -1.3030390883       -0.0271565880
 F         -1.8007340663       -2.3677562740       -0.0366297179
 H         -4.6557043141        1.3736265729        0.1051470865
 H         -3.0777911052        2.2812466651        0.2186622202
 H         -3.5088420895       -0.7330985940       -0.1010793084
 H         -0.9603539627        2.0454643125       -0.0139273530
 H          2.1794571579        3.7649229408       -0.0189336365
 H          0.6868632247        3.3907894218        0.8753287407
 H          0.6872145154        3.3881146969       -0.9134353254
 H          3.3201654420        0.1998209249       -0.1696545939
 H          2.8596605922       -2.7940033978        0.2886236229
 H          4.4491331416       -1.9175226329        0.1050716482
 H          0.7331776188       -2.5697094834       -0.0484186411
