  26
        -49.80611616
 C          4.1584160684       -2.0526598986        0.3983355420
 C          2.9929503300       -2.0684560396       -0.2372409484
 C          1.9402661080       -1.0563208948       -0.1390813843
 C          0.6223600149       -1.4971999154       -0.1430581714
 C         -0.4224510435       -0.6010237852       -0.0145334906
 O         -1.7151035882       -1.1828021768       -0.0152462083
 C         -2.7794157051       -0.4212684465        0.0164671366
 F         -2.9183926036        0.3087717722        1.1417248726
 F         -2.8651589800        0.4696930900       -0.9922420426
 F         -3.8651261566       -1.1875963151       -0.0664185027
 C         -0.1796009803        0.7507630513        0.1178070143
 C          1.1287620031        1.2250502800        0.0890895375
 C          1.3785261388        2.6583445325        0.2489618857
 C          0.5832837810        3.6209413603       -0.1985794742
 C          2.2037197341        0.3267227936       -0.0614640673
 N          3.4934181004        0.8035386434       -0.1315743167
 H          4.8652148320       -2.8577139809        0.2874015506
 H          4.4304700191       -1.2697536121        1.0858674761
 H          2.7402155490       -2.9199051101       -0.8574835409
 H          0.3999733325       -2.5486675879       -0.2248261670
 H         -0.9770232785        1.4611945073        0.2592732194
 H          2.2797485338        2.9197531276        0.7897981607
 H         -0.3117298700        3.4102688890       -0.7592403489
 H          0.8066552529        4.6604658118       -0.0306556500
 H          3.5935874011        1.7572436418       -0.4386349311
 H          4.1682407923        0.1629781390       -0.5207902210
