  26
        -49.80611616
 C          4.1584160684       -2.0526598986        0.3983355420
 C          2.9929503300       -2.0684560396       -0.2372409484
 C          1.9402661080       -1.0563208948       -0.1390813843
 C          0.6223600149       -1.4971999154       -0.1430581714
 C         -0.4224510435       -0.6010237852       -0.0145334906
 O         -1.7151035882       -1.1828021768       -0.0152462083
 C         -2.7794157051       -0.4212684465        0.0164671366
 F         -2.9183926036        0.3087717722        1.1417248726
 F         -2.8651589800        0.4696930900       -0.9922420426
 F         -3.8651261566       -1.1875963151       -0.0664185027
 C         -0.1796009803        0.7507630513        0.1178070143
 C          1.1287620031        1.2250502800        0.0890895375
 C          1.3785261388        2.6583445325        0.2489618857
 C          0.5832837810        3.6209413603       -0.1985794742
 C          2.2037197341        0.3267227936       -0.0614640673
 N          3.4934181004        0.8035386434       -0.1315743167
 H          4.8652148320       -2.8577139809        0.2874015506
 H          4.4304700191       -1.2697536121        1.0858674761
 H          2.7402155490       -2.9199051101       -0.8574835409
 H          0.3999733325       -2.5486675879       -0.2248261670
 H         -0.9770232785        1.4611945073        0.2592732194
 H          2.2797485338        2.9197531276        0.7897981607
 H         -0.3117298700        3.4102688890       -0.7592403489
 H          0.8066552529        4.6604658118       -0.0306556500
 H          3.5935874011        1.7572436418       -0.4386349311
 H          4.1682407923        0.1629781390       -0.5207902210
  26
        -49.80610229
 C          3.2477595175       -2.9857149307       -0.4379546698
 C          3.2022268261       -1.7910439337        0.1360387535
 C          2.0544196747       -0.8840025937        0.0907037173
 C          0.7645507504       -1.3963028881        0.0772866858
 C         -0.3279695247       -0.5476534706        0.0776826891
 O         -1.5887618874       -1.1966220398        0.0677937109
 C         -2.6907138370       -0.4938771178       -0.0029681311
 F         -2.9169296875        0.3108756984        1.0552922847
 F         -2.7774147369        0.3119820563       -1.0808122841
 F         -3.7312979400       -1.3222049640       -0.0694575446
 C         -0.1613188851        0.8209753413        0.1147775177
 C          1.1214782772        1.3638407522        0.1232500185
 C          1.2878808210        2.8160532330        0.1978773741
 C          0.4718875287        3.7019901538       -0.3574836284
 C          2.2425538554        0.5139018807        0.0855974138
 N          3.5139144298        1.0422164775        0.0594719087
 H          4.1123295650       -3.6211136946       -0.3513176036
 H          2.4305219352       -3.3683631136       -1.0252811829
 H          4.0566552704       -1.4403863083        0.7019345405
 H          0.5978616353       -2.4600248594        0.0921015615
 H         -1.0001433389        1.4953965921        0.1613939725
 H          2.1403179098        3.1629436304        0.7691881579
 H         -0.3764925093        3.4057169448       -0.9508909162
 H          0.6312565374        4.7610270452       -0.2492028597
 H          3.5968121207        1.9983350068       -0.2413718419
 H          4.2460582083        0.4353567450       -0.2678875684
  26
        -49.80599152
 C          3.2826323109       -2.8645116787        0.2017184776
 C          3.1805629017       -1.6213763203       -0.2489206170
 C          1.9926972944       -0.7769717053       -0.1133084556
 C          0.7285411026       -1.3457699661       -0.1531488739
 C         -0.4011014523       -0.5523357094       -0.0528361484
 O         -1.6306643282       -1.2564843519       -0.0907848671
 C         -2.7634347595       -0.6139014239        0.0424817657
 F         -2.8895673934        0.0715760279        1.1971258319
 F         -3.0209148608        0.2848416583       -0.9290071168
 F         -3.7658299765       -1.4898651622        0.0157586021
 C         -0.2923844271        0.8170482657        0.0600036942
 C          0.9655998982        1.4198479875        0.0749367753
 C          1.0029907703        2.8800821718        0.1626871131
 C          1.8546708022        3.6826378640       -0.4645171287
 C          2.1235688053        0.6222196172        0.0260389807
 N          3.3755004942        1.1885400733        0.1124899408
 H          4.1753029900       -3.4473463909        0.0529118841
 H          2.4857733059       -3.3417781474        0.7462994731
 H          4.0156760898       -1.1748915563       -0.7743906000
 H          0.6091324325       -2.4086650507       -0.2775337649
 H         -1.1609096767        1.4535976066        0.1195514944
 H          0.2153678053        3.3142729336        0.7667546179
 H          2.6084674163        3.3116362756       -1.1382180750
 H          1.7907283456        4.7527648961       -0.3616097734
 H          3.3989907590        2.1234809677        0.4903798109
 H          4.1096515299        0.5835264741        0.4424907461
  26
        -49.80556082
 C          2.2103777753       -3.0355664330       -0.0089188579
 C          2.4892508178       -1.8049052445        0.3990448720
 C          1.6417522066       -0.6346899438        0.1626085328
 C          0.2575520305       -0.7814168838        0.1747785014
 C         -0.5514112493        0.3219681547       -0.0035124699
 O         -1.9689077231        0.2782164028       -0.0038042942
 C         -2.5915108129       -0.8724318899        0.0350868662
 F         -2.4150769943       -1.5722535729        1.1747542012
 F         -3.9021246094       -0.6620074126       -0.0717115990
 F         -2.2612188497       -1.7262740895       -0.9548015806
 C         -0.0057093606        1.5783176035       -0.1911830700
 C          1.3719218276        1.7540329443       -0.2166694745
 C          1.9225851579        3.0889377467       -0.4545255486
 C          1.3799337312        4.2182071217       -0.0210131232
 C          2.2138916822        0.6358733867       -0.0432130255
 N          3.5799108594        0.7851572330       -0.0059830228
 H          2.8592399718       -3.8648453802        0.2146573039
 H          1.3328596561       -3.2600817905       -0.5914286085
 H          3.3943674838       -1.6235882459        0.9655569942
 H         -0.1497533853       -1.7631074433        0.3510557145
 H         -0.6657270427        2.4156839528       -0.3420456393
 H          2.8318752162        3.1383890432       -1.0432026780
 H          0.4917772717        4.2258033588        0.5870793287
 H          1.8149534561        5.1768770606       -0.2451654528
 H          3.9549891106        1.6587490398       -0.3332735676
 H          4.1349591728       -0.0258937868       -0.2176923142
  26
        -49.80541109
 C          3.2450480641       -2.9841279037        0.4321861142
 C          3.1958850320       -1.8005842528       -0.1635946889
 C          2.0563029707       -0.8847883951       -0.1140403217
 C          0.7662861843       -1.3955577524       -0.0759456831
 C         -0.3261691376       -0.5472555768       -0.0674839513
 O         -1.5869285990       -1.1962546908       -0.0354791691
 C         -2.6882986401       -0.4925677687        0.0318170534
 F         -2.7713418750        0.3269509735        1.0991615123
 F         -2.9184920900        0.2990382846       -1.0363614000
 F         -3.7288558563       -1.3197110584        0.1121147933
 C         -0.1595920030        0.8207879750       -0.1166617687
 C          1.1225176531        1.3644351932       -0.1499612597
 C          1.2773133390        2.8165455590       -0.2327482940
 C          0.4696072254        3.6998536674        0.3381852934
 C          2.2462265934        0.5145036343       -0.1296425856
 N          3.5055117139        1.0396291813       -0.0090564414
 H          4.1024532400       -3.6281442686        0.3392625842
 H          2.4397797953       -3.3452138591        1.0483713894
 H          4.0471857153       -1.4757153165       -0.7515927671
 H          0.5994624299       -2.4593672402       -0.0785881741
 H         -0.9989103330        1.4951249625       -0.1546040857
 H          2.1111799560        3.1768689645       -0.8252225126
 H         -0.3582969055        3.3999310053        0.9574612814
 H          0.6180683956        4.7592984717        0.2197763993
 H          3.6329513885        2.0147278229       -0.2154673672
 H          4.2888204619        0.4379545404       -0.1933298504
  26
        -49.80538210
 C          4.1343648593       -2.0314457524        0.5433906289
 C          2.9943259438       -2.0744223592       -0.1350202628
 C          1.9414631538       -1.0560942683       -0.1323566102
 C          0.6254900242       -1.4991696758       -0.1248023890
 C         -0.4223023702       -0.5974877523       -0.0840702803
 O         -1.7143293111       -1.1802758649       -0.0626347781
 C         -2.7780690089       -0.4213576652        0.0136920890
 F         -2.8303093093        0.3702378345        1.1035852607
 F         -2.9527002133        0.4112910909       -1.0331981972
 F         -3.8612413271       -1.1943961279        0.0592355945
 C         -0.1821261602        0.7602737005       -0.0809272135
 C          1.1267553057        1.2352037534       -0.1280643163
 C          1.3507978347        2.6805801375       -0.1755996248
 C          0.6098374072        3.5820086208        0.4539171080
 C          2.2064195680        0.3300576197       -0.1522178004
 N          3.5014351272        0.7875252977       -0.1428363518
 H          4.8390608741       -2.8449213348        0.5006570501
 H          4.3851651230       -1.2164399101        1.2008901984
 H          2.7605929798       -2.9564505172       -0.7193186471
 H          0.4056901799       -2.5543527806       -0.1292412477
 H         -0.9840814371        1.4796215231       -0.0770072069
 H          2.1787155141        3.0206968723       -0.7879105741
 H         -0.2073796072        3.3015380995        1.0962348017
 H          0.8058886531        4.6364297177        0.3634318832
 H          3.6436800987        1.7470371780       -0.4116538010
 H          4.1975402446        0.1384488820       -0.4756217022
  26
        -49.80524905
 C          3.3938142401       -2.2626504387        0.7106944198
 C          2.2638864413       -2.0480732174        0.0478381352
 C          1.5292503192       -0.7838072307       -0.0326231813
 C          0.1386481804       -0.8587835737        0.0255506906
 C         -0.6167139294        0.2942025151       -0.0085221403
 O         -2.0321748739        0.3246920012        0.0630390026
 C         -2.7167971074       -0.7909333790        0.0456752141
 F         -2.5124948988       -1.5960532447        1.1083253757
 F         -4.0169492512       -0.5034700433        0.0419019146
 F         -2.4962478300       -1.5703343870       -1.0322057513
 C         -0.0105602621        1.5316831906       -0.1271017430
 C          1.3699411673        1.6352100698       -0.2279768547
 C          1.9783699053        2.9539499552       -0.4083500226
 C          1.5261354584        4.0756718545        0.1345859025
 C          2.1610858287        0.4662396172       -0.1800051807
 N          3.5312447782        0.5493017699       -0.2242799521
 H          3.8478640441       -3.2390128141        0.7352027493
 H          3.8775903492       -1.4960581581        1.2919120216
 H          1.7806753224       -2.8785932331       -0.4531171282
 H         -0.3143455441       -1.8331335146        0.1183263831
 H         -0.6292713670        2.4117295066       -0.1744873688
 H          2.8525468616        2.9997265547       -1.0482249200
 H          0.6785211405        4.0855900835        0.7979832618
 H          1.9994753702        5.0242639570       -0.0515115378
 H          3.9212013250        1.4040817261       -0.5852402354
 H          4.0120232689       -0.2936654544       -0.4982357382
  26
        -49.80475198
 C          2.9100880280       -2.8001933211        0.4312748383
 C          2.7783369156       -1.6792257130       -0.2640596567
 C          1.7501411534       -0.6657671924       -0.0235222306
 C          0.4803725717       -1.0682101418        0.3729908091
 C         -0.5168306215       -0.1309465750        0.5552888716
 O         -1.8136559750       -0.5598987662        0.9654145948
 C         -2.6438726541       -0.8176276378       -0.0148024968
 F         -2.2304266334       -1.7950013046       -0.8484677231
 F         -3.8178975888       -1.2075142745        0.4740225351
 F         -2.8940766640        0.2357884052       -0.8207913699
 C         -0.2776019835        1.2137820176        0.3542168775
 C          0.9931307041        1.6516615446       -0.0015597226
 C          1.1870052468        3.0952943053       -0.1556309820
 C          2.2456964992        3.7945421109        0.2344223371
 C          2.0199916992        0.7071794724       -0.2142669078
 N          3.2802704261        1.1254079869       -0.5554264787
 H          3.6695402124       -3.5254599147        0.1954580300
 H          2.2765595580       -3.0267611419        1.2716202249
 H          3.4610881693       -1.4903878013       -1.0850434088
 H          0.2630473661       -2.1155621036        0.5059433872
 H         -1.0736391830        1.9284936615        0.4944439299
 H          0.3405131821        3.6154967678       -0.5878696657
 H          3.0826090112        3.3432436779        0.7400171880
 H          2.2860642468        4.8629620317        0.1044556803
 H          3.3450131952        2.0431948934       -0.9674580654
 H          3.9041907357        0.4328521554       -0.9345087659
