  23
        -33.93833144
 C         -3.8163562248        0.6393908610        0.0985248212
 C         -2.6939810228        1.3434194252        0.0311095596
 C         -1.3662746420        0.7378149657       -0.0102052311
 C         -0.2263773790        1.5416294049       -0.0752039303
 C          1.0231922025        0.9376140634       -0.1134538367
 C          2.2789693239        1.7706979856       -0.1894412468
 O          3.4369767995        1.1064170292        0.2504548488
 C          1.0872237727       -0.4467167090       -0.0873384629
 C         -0.1004151366       -1.1804753159       -0.0180395654
 C         -0.1450412736       -2.6394957415        0.0180383320
 C          0.8934823529       -3.4631479534       -0.0382865686
 N         -1.2887999691       -0.5886618497        0.0219717619
 H         -4.7851280904        1.1078204592        0.1269423416
 H         -3.7806847758       -0.4358439407        0.1262810199
 H         -2.7136266140        2.4251776829        0.0020992192
 H         -0.3161270886        2.6179323183       -0.0946130237
 H          2.1303628201        2.7079964172        0.3685674369
 H          2.4731533053        2.0311863723       -1.2357674240
 H          3.3078226370        0.8303497273        1.1649672144
 H          2.0462603333       -0.9378663073       -0.1274678238
 H         -1.1499988319       -3.0317670729        0.0948602383
 H          1.9104452987       -3.1183927829       -0.1203438616
 H          0.7613642441       -4.5311682871       -0.0069822079
  23
        -33.93818020
 C         -3.3703070696        1.7707196037        0.0493438574
 C         -2.7781664986        0.5839605972        0.0750891473
 C         -1.3423942486        0.3242200818        0.0105010230
 C         -0.3757509953        1.3310759647       -0.0429152833
 C          0.9642599581        0.9759443991       -0.1039317861
 C          2.0372008661        2.0348325682       -0.1704548574
 O          3.3058112206        1.5955962296        0.2454743491
 C          1.2896231105       -0.3723253095       -0.1095212540
 C          0.2636831013       -1.3188799657       -0.0471965694
 C          0.5779460963       -2.7442812951       -0.0467379228
 C         -0.3445875172       -3.6958790847        0.0141018300
 N         -1.0146237060       -0.9640093785        0.0134860806
 H         -4.4418512273        1.8614201247        0.1001018982
 H         -2.8243758214        2.6961613295       -0.0245331538
 H         -3.3692104859       -0.3190451703        0.1448683638
 H         -0.6583873705        2.3718454725       -0.0353644862
 H          1.7188672671        2.9147648234        0.4096922942
 H          2.1658973748        2.3491925921       -1.2121161045
 H          3.2424874440        1.2783721554        1.1535193437
 H          2.3225838056       -0.6815959717       -0.1686309901
 H          1.6307300866       -2.9891839823       -0.1011597955
 H         -1.3878852411       -3.4370419265        0.0669199747
 H         -0.0891866083       -4.7416114750        0.0123847045
  23
        -33.93763215
 C         -3.3613299350        2.0679234237        0.0450594443
 C         -2.8823676638        0.8310551789        0.0685939424
 C         -1.4766212180        0.4400857469        0.0102701938
 C         -0.4204543628        1.3506645936       -0.0545617794
 C          0.8800841986        0.8687440104       -0.1072516985
 C          2.0488771251        1.8204367019       -0.1845342945
 O          3.2665485614        1.2711109405        0.2528440256
 C          1.0814449074       -0.5029824731       -0.0944301442
 C         -0.0272712618       -1.3496344051       -0.0221083832
 C          0.0686143969       -2.8061647474        0.0035443598
 C          1.1822857164       -3.5247421640       -0.0556175661
 N         -1.2667459327       -0.8731500182        0.0308299674
 H         -4.4199838684        2.2577944217        0.0915907690
 H         -2.7311972450        2.9388056888       -0.0221852343
 H         -3.5544236657       -0.0137313403        0.1338192964
 H         -0.6033329267        2.4135188239       -0.0625594449
 H          1.8110877720        2.7384014830        0.3746356054
 H          2.2152873151        2.0991375249       -1.2309872057
 H          3.1668688848        0.9839636743        1.1676443445
 H          2.0841066360       -0.8961582117       -0.1463678957
 H         -0.8939719201       -3.2937673713        0.0766237754
 H          2.1610820610       -3.0823134029       -0.1330800848
 H          1.1543415123       -4.6006980776       -0.0313011100
