  21
        -34.45014068
 C         -3.0746153591        2.2743325734        0.0031630295
 C         -3.2208713378        0.9526842383       -0.0027653256
 C         -2.1626637606       -0.0389381908       -0.0016568135
 C         -2.4870868992       -1.3803998304       -0.0015870958
 C         -1.5288236391       -2.3987083161        0.0001617516
 C         -0.1701427140       -2.1563124822        0.0008804356
 C          0.7554173825       -3.2727610373        0.0021941013
 C          2.0835096765       -3.2069978749       -0.0026649878
 C          0.2233557888       -0.7859890101        0.0003054712
 N          1.4754851557       -0.3477025816        0.0009563315
 Se         1.4877105385        1.3999870419        0.0003576150
 N         -0.2574978209        1.4938689532       -0.0007068892
 C         -0.7709808276        0.2706531628       -0.0005635002
 H         -3.9316645237        2.9266938449        0.0019763984
 H         -2.1038629615        2.7353895438        0.0093681695
 H         -4.2184624269        0.5280670936       -0.0084574488
 H         -3.5310081345       -1.6611503724       -0.0025430366
 H         -1.8724226838       -3.4236638702        0.0006897880
 H          0.2710237800       -4.2427409490        0.0071451699
 H          2.6026431424       -2.2660157120       -0.0080898751
 H          2.6826474233       -4.1020635894       -0.0013869934
