  24
        -37.20606592
 C          3.3507928150        2.0973719296        0.5967235711
 C          2.1734912625        1.4896129122        0.6906812036
 C          1.8963191175        0.1455946746        0.2238605815
 C          2.8950603625       -0.8466869962        0.0351282652
 C          2.3990090903       -2.0460750249       -0.3482063779
 S          0.6876470167       -2.0238150603       -0.5017308558
 C          0.6257912630       -0.3471114539       -0.0228581737
 C         -0.6257902353        0.3490771015       -0.0220286889
 S         -0.6906112796        2.0251419347       -0.5027138020
 C         -2.4017832282        2.0453356181       -0.3467578515
 C         -2.8957065434        0.8456516177        0.0385048227
 C         -1.8953149033       -0.1449244612        0.2269004144
 C         -2.1704808623       -1.4889992500        0.6951940394
 C         -3.3445280966       -2.1014848965        0.5926142395
 H          3.4985483851        3.0921792711        0.9792966179
 H          4.2016952599        1.6370085922        0.1241372386
 H          1.3425531767        2.0088162155        1.1495964868
 H          3.9411023437       -0.6674854768        0.2038552842
 H          2.9296081401       -2.9566203681       -0.5441271180
 H         -2.9338305332        2.9550215026       -0.5427222344
 H         -3.9411838536        0.6650048812        0.2092832802
 H         -1.3411717580       -2.0034287005        1.1624593333
 H         -4.1927351658       -1.6453899899        0.1110503375
 H         -3.4920467473       -3.0958726944        0.9763858426
