  34
        -48.19849656
 C          5.8686964711       -0.6562076908       -0.1667760981
 C          4.9979677494        0.3451798191       -0.2110651094
 C          3.5447500561        0.2470742690       -0.1688911797
 C          2.7850552882        1.4084674809       -0.3244157046
 C          1.4068074907        1.3545748483       -0.2876157271
 C          0.7314907872        0.1531400847       -0.1004960344
 C         -0.7426539438        0.1245005505       -0.0717459869
 C         -1.4457833960       -0.6987671577       -0.9461476935
 C         -2.8244267945       -0.7452470858       -0.9511488622
 C         -3.5571572264        0.0394208241       -0.0588771063
 C         -5.0131675029        0.0348771532       -0.0029484168
 C         -5.8359764817       -0.7021762827       -0.7396053325
 C         -2.8579857197        0.8608253615        0.8210771951
 C         -1.4680308586        0.9246402306        0.8295281536
 N         -0.8264301872        1.7937630867        1.6891660006
 C          1.4846604710       -1.0253008291        0.0583302012
 N          0.8650578521       -2.2503115167        0.2067727109
 C          2.8736724731       -0.9557446784        0.0274960268
 H          6.9297210617       -0.4779899371       -0.2079611371
 H          5.5692234423       -1.6876296747       -0.0936432835
 H          5.3734427991        1.3582435464       -0.2959913495
 H          3.2812377389        2.3555092830       -0.4793462658
 H          0.8282900257        2.2570071522       -0.4232556206
 H         -0.8861292537       -1.3000517723       -1.6482184365
 H         -3.3297738986       -1.3899168696       -1.6520397071
 H         -5.4358851887        0.7147992542        0.7277729857
 H         -5.4876238023       -1.3984781852       -1.4828094644
 H         -6.9042874727       -0.6336700916       -0.6241450244
 H         -3.4061134138        1.4743736551        1.5241946361
 H         -1.3550846602        2.0952460565        2.4912551021
 H          0.1487222430        1.6086456887        1.8638031571
 H         -0.0971801958       -2.2298679702        0.5056300674
 H          1.4234956720       -2.9834800601        0.6121265334
 H          3.4317830017       -1.8702385382        0.1638776016
