  36
        -48.32567635
 C         -4.6950405528        0.4801425827       -1.3397981095
 C         -3.3615001512        0.3318813356       -0.6711332469
 C         -2.6032242384        1.4315578931       -0.3124509356
 C         -1.3718757656        1.2834923917        0.3071857997
 C         -0.8748205001        0.0193599045        0.5843939819
 O          0.3180343986       -0.2628967449        1.1925058462
 C          1.1844890529        0.7618285271        1.6170847570
 C          2.3287863458        1.1397264482        0.6400903624
 C          1.9234739481        1.2616983238       -0.8376989607
 C          1.7877389032       -0.0973966532       -1.5245343158
 C          3.0358957142       -0.9321223642       -1.2529895311
 C          3.2622101868       -1.0005828033        0.2553710491
 O          3.4462293963        0.2894262324        0.8052659290
 C         -1.6336365489       -1.1102769059        0.2319528899
 C         -1.0982360367       -2.4760661804        0.5358110608
 C         -2.8550978771       -0.9327036465       -0.3866991979
 H         -4.8951720458        1.5211017298       -1.5805214980
 H         -5.4884535562        0.1182430507       -0.6861030971
 H         -4.7289938251       -0.1037559119       -2.2584403480
 H         -2.9677445344        2.4278169135       -0.5179580204
 H         -0.8168374591        2.1726766367        0.5649394680
 H          1.6634292238        0.3783484652        2.5257927472
 H          0.6268252039        1.6635993922        1.8857104829
 H          2.6981743991        2.1150180942        0.9843542714
 H          2.7089085140        1.8286451445       -1.3440218702
 H          0.9927575574        1.8230486321       -0.9200896683
 H          1.6536442576        0.0523987371       -2.5981993617
 H          0.9101616544       -0.6240607994       -1.1512168948
 H          3.9039478490       -0.4626587270       -1.7209979981
 H          2.9244542346       -1.9392864138       -1.6565020891
 H          4.1791022773       -1.5447415948        0.4934172314
 H          2.4126502857       -1.5016110136        0.7377800781
 H         -0.8541352393       -2.5547104236        1.5939329907
 H         -0.1804969512       -2.6579011710       -0.0230220737
 H         -1.8243917263       -3.2422071139        0.2775929540
 H         -3.4349773661       -1.8042111184       -0.6571362833
