  22
        -27.50060257
 C         -4.1983419795        0.4698663149       -0.0019379730
 C         -2.8418572965       -0.1472395615       -0.0036357679
 C         -1.7065840342        0.5468131353        0.0031431587
 C         -0.3506100015        0.0150773103        0.0020021740
 C         -0.0630900839       -1.3508230782       -0.0022372935
 C          1.2457933830       -1.7898255153       -0.0017299490
 C          2.2928986268       -0.8837853118        0.0031512045
 C          2.0367081707        0.4811831860        0.0080208793
 C          3.1598538166        1.4745302355       -0.0085294994
 C          0.7187777666        0.9111169803        0.0070677819
 H         -4.7561432913        0.1561087863       -0.8847567438
 H         -4.1371687089        1.5555257734        0.0072188146
 H         -4.7605073564        0.1414272098        0.8727205849
 H         -2.8326179081       -1.2283859525       -0.0110621676
 H         -1.7658108368        1.6294412603        0.0099161481
 H         -0.8640206615       -2.0736188295       -0.0042972830
 H          1.4555095123       -2.8500509054       -0.0036108768
 H          3.3137373234       -1.2384907068        0.0046902045
 H          4.0727066294        1.0357844042        0.3874850838
 H          2.9074496831        2.3550323421        0.5785760054
 H          3.3555310825        1.7981813604       -1.0315655264
 H          0.5131606599        1.9733756498        0.0113510512
