  26
        -36.03303392
 C         -4.6754901151        0.9916864397       -0.1020768783
 C         -3.9758808471       -0.1313591107        0.0119396935
 C         -2.5241722321       -0.2584725786        0.0139966208
 C         -1.9651049414       -1.5589602362        0.0081089642
 C         -0.6159313883       -1.7527246766        0.0059487848
 C          0.2734795009       -0.6556103169        0.0135817615
 C          1.6683702073       -0.8225510978        0.0122318930
 C          2.5241598221        0.2580742928        0.0228566881
 C          3.9758778907        0.1309070375        0.0204295404
 C          4.6754648579       -0.9891529001       -0.1198102837
 C          1.9651075075        1.5584358528        0.0418787528
 C          0.6159342254        1.7522074535        0.0413979547
 C         -0.2734586867        0.6551525032        0.0260412747
 C         -1.6683425167        0.8221221738        0.0258662177
 H         -5.7519722249        0.9833778561       -0.0951503784
 H         -4.2137034663        1.9580232552       -0.2107428863
 H         -4.5088882067       -1.0702973770        0.1055374215
 H         -2.6329162809       -2.4093371521        0.0022217053
 H         -0.2059617832       -2.7530256315       -0.0006451227
 H          2.0590976767       -1.8292450306        0.0089422007
 H          4.5088165212        1.0672017522        0.1376134122
 H          4.2135750275       -1.9523262329       -0.2530857698
 H          5.7519358864       -0.9813512388       -0.1107999044
 H          2.6329267128        2.4087398172        0.0538356253
 H          0.2059414295        2.7524427525        0.0539246377
 H         -2.0590096003        1.8287188111        0.0415189045
