  15
        -24.92269408
 C         -3.3745492044        0.7207267924        0.0007032216
 C         -2.6227097776       -0.3748706428        0.0009871907
 C         -1.1865746790       -0.3739274737       -0.0001163372
 N         -0.4682235476       -1.4515221599       -0.0002379061
 N          0.8264662160       -1.2496351311       -0.0006227799
 C          1.1769333301       -0.0032480520       -0.0007742431
 C          2.5283787529        0.4890115938       -0.0004269829
 C          3.5863442764       -0.3163588123        0.0018992420
 S         -0.2044413205        1.0875275312       -0.0007083473
 H         -4.4487268490        0.6660941611        0.0017375732
 H         -2.9386299728        1.7068709401       -0.0006630541
 H         -3.0589352201       -1.3638763886        0.0023963252
 H          2.6341443634        1.5649071385       -0.0017825062
 H          3.4620532710       -1.3852324365        0.0032500750
 H          4.5897339740        0.0718890745        0.0024778961
