  26
        -36.02772809
 C          3.6335315114        1.6749233893       -0.3933691619
 C          2.8768863206        0.7645964008        0.2046987552
 C          1.4170636433        0.7259246382        0.1310051604
 C          0.6980304757        1.9010554664        0.1422076417
 C         -0.6956875851        1.9019014169        0.1424335193
 C         -1.4160209361        0.7275988227        0.1317236813
 C         -2.8758381562        0.7679968895        0.2058048279
 C         -3.6314315242        1.6772294188       -0.3952162502
 C         -0.7115915663       -0.5096852437        0.0777926308
 C         -1.3860274738       -1.7455930536       -0.0190283077
 C         -0.7019997948       -2.9263449605       -0.0968581618
 C          0.6980729123       -2.9272352697       -0.0975442695
 C          1.3837618919       -1.7473952370       -0.0203015872
 C          0.7111183576       -0.5105629044        0.0772406932
 H          4.7053854902        1.6769136626       -0.2909556189
 H          3.2133610823        2.4410584758       -1.0235727817
 H          3.3462385751       -0.0032210118        0.8059991834
 H          1.2230822276        2.8436133460        0.1935678855
 H         -1.2196904330        2.8450527696        0.1937693443
 H         -3.3457743604        0.0026354018        0.8098242115
 H         -3.2102049342        2.4407280549       -1.0279610533
 H         -4.7032858570        1.6809214003       -0.2928180080
 H         -2.4646818771       -1.7552724345       -0.0513638482
 H         -1.2371362216       -3.8619303343       -0.1704479454
 H          1.2319186249       -3.8635014712       -0.1718373710
 H          2.4623597989       -1.7586714307       -0.0537421870
  26
        -36.02663878
 C          3.7775464955        1.5188730860        0.2778593075
 C          2.8953609289        0.7386619354       -0.3318749960
 C          1.4548105412        0.7663861990       -0.0824226973
 C          0.8198048277        1.9678244436        0.1443724039
 C         -0.5631432743        2.0390682148        0.3006381872
 C         -1.3554168166        0.9146505334        0.2191727060
 C         -2.8079795851        1.0929003272        0.2651480379
 C         -3.6765456702        0.5292095042       -0.5628228517
 C         -0.7316057591       -0.3569207893        0.0748486594
 C         -1.4639296110       -1.5607519947        0.1515953840
 C         -0.8505586966       -2.7758695770        0.0288887937
 C          0.5346616625       -2.8467522070       -0.1637942031
 C          1.2798863317       -1.7017844644       -0.2042354370
 C          0.6805202499       -0.4292966639       -0.0871613132
 H          4.8276155057        1.4782183878        0.0432386327
 H          3.4877898538        2.2138935613        1.0483670166
 H          3.2366786551        0.0350247721       -1.0801895911
 H          1.3978745652        2.8800543263        0.1594826276
 H         -1.0274934107        3.0053356816        0.4413371734
 H         -3.1583243125        1.8079783997        1.0006133365
 H         -3.3657200942       -0.1407176681       -1.3472983526
 H         -4.7316635692        0.7371696959       -0.5012398814
 H         -2.5253157230       -1.5118364158        0.3399125369
 H         -1.4281769811       -3.6864013312        0.0951686002
 H          1.0129838389       -3.8111003980       -0.2555595755
 H          2.3522644003       -1.7706319625       -0.3038643784
  26
        -36.02647437
 C          3.6288618875        0.5237694408        0.7119978253
 C          2.8081316349        1.0986654836       -0.1557473442
 C          1.3551232534        0.9165654027       -0.1961557668
 C          0.5651313840        2.0421840177       -0.2803231493
 C         -0.8252102276        1.9602809258       -0.2392811987
 C         -1.4698960940        0.7485400300       -0.1178744879
 C         -2.9314774280        0.7049317419       -0.0924782535
 C         -3.6949799634        1.6046717975        0.5128201860
 C         -0.6900121043       -0.4421514863       -0.0631647589
 C         -1.2819786460       -1.7165566779        0.0744157009
 C         -0.5274852265       -2.8558186133        0.0812018305
 C          0.8630749887       -2.7777807935       -0.0682457424
 C          1.4730520870       -1.5592763001       -0.1681465412
 C          0.7295029476       -0.3600372356       -0.1290577694
 H          4.6852460673        0.7345284976        0.7148445046
 H          3.2748826661       -0.1591038075        1.4664949882
 H          3.1980691477        1.8256489164       -0.8589296283
 H          1.0332572040        3.0138036110       -0.3569280153
 H         -1.4078250401        2.8662700865       -0.3190070861
 H         -3.3976144677       -0.1159372022       -0.6216207807
 H         -3.2757265820        2.4229925974        1.0743879386
 H         -4.7698242923        1.5464246279        0.4857921321
 H         -2.3533941224       -1.7906359947        0.1794445249
 H         -1.0004729134       -3.8214462904        0.1862382356
 H          1.4486263022       -3.6849387332       -0.1037208038
 H          2.5428669706       -1.5027721632       -0.2973342671
  26
        -36.02515600
 C          3.7335801924        0.3535066435        0.4751144448
 C          2.8632160428        1.0563545872       -0.2354594886
 C          1.4047671127        0.9624871264       -0.1231112751
 C          0.6920864345        2.1338861282        0.0110172044
 C         -0.6901977698        2.1265782711        0.1861139289
 C         -1.4040889131        0.9485561002        0.2113922517
 C         -2.8626977934        1.0329602096        0.3290983020
 C         -3.7314387348        0.3994876123       -0.4457772232
 C         -0.7047757045       -0.2843627191        0.0899486825
 C         -1.3588919353       -1.5305444149        0.2055616985
 C         -0.6841825950       -2.7060603715        0.0356240483
 C          0.6811256402       -2.6923460203       -0.2804430535
 C          1.3570250997       -1.5069369317       -0.3431088551
 C          0.7042947802       -0.2757368871       -0.1144347034
 H          4.7957513580        0.5017029348        0.3737462744
 H          3.4194438447       -0.3786201136        1.2005067649
 H          3.2215479770        1.8245084965       -0.9111974594
 H          1.2172258591        3.0789016359        0.0009214545
 H         -1.2143745504        3.0672120328        0.2829093715
 H         -3.2222581055        1.7356635277        1.0720437930
 H         -3.4154519615       -0.2627413370       -1.2347731898
 H         -4.7938321350        0.5384544892       -0.3342526370
 H         -2.4107439240       -1.5440926325        0.4458569164
 H         -1.2011961855       -3.6497756955        0.1318385176
 H          1.1972083762       -3.6239395588       -0.4619676012
 H          2.4088023540       -1.4997433986       -0.5839360468
