  25
        -41.23740108
 C         -4.7810998874        0.2847511930        0.2053419915
 C         -3.5459032457        0.7707390708        0.1599770010
 C         -2.3155516127        0.0002064308        0.0456799804
 C         -2.2826349448       -1.3850747580       -0.1322426174
 C         -1.0829558878       -2.0532406191       -0.2334139049
 C          0.1491237685       -1.3923919320       -0.1397655780
 C          1.3564748943       -2.2114026438       -0.2131914450
 C          2.4932304130       -1.9992070329        0.4397160344
 C          0.1092202847       -0.0070582936        0.0137598811
 S          1.5495390569        1.0806393447        0.0388900955
 N          2.5226157180        0.6073297104       -1.2293359186
 O          1.0944237063        2.3984336799       -0.2845554550
 O          2.2949248668        0.8957025662        1.2475236533
 C         -1.0903243159        0.6665421131        0.0979236031
 H         -5.6331408724        0.9359102771        0.2956916567
 H         -4.9975764049       -0.7688755059        0.1605678961
 H         -3.3965190989        1.8410649755        0.2201978012
 H         -3.2029196799       -1.9434351571       -0.2019918270
 H         -1.0825904295       -3.1250020284       -0.3724597703
 H          1.2435939987       -3.1078515739       -0.8138459345
 H          2.6344126654       -1.1543844805        1.0916848121
 H          3.3149337620       -2.6917129037        0.3544648335
 H          2.1102219213        0.8037138583       -2.1251433164
 H          2.8840580292       -0.3301168901       -1.1491840672
 H         -1.0511246184        1.7403513612        0.1956470135
