25
 energy: -41.237401077442 gnorm: 0.000100023297 xtb: 6.4.1 (23d549d)
C        -4.78109988740000    0.28475119300000    0.20534199150000
C        -3.54590324570000    0.77073907080000    0.15997700100000
C        -2.31555161270000    0.00020643080000    0.04567998040000
C        -2.28263494480000   -1.38507475800000   -0.13224261740000
C        -1.08295588780000   -2.05324061910000   -0.23341390490000
C         0.14912376850000   -1.39239193200000   -0.13976557800000
C         1.35647489430000   -2.21140264380000   -0.21319144500000
C         2.49323041300000   -1.99920703290000    0.43971603440000
C         0.10922028470000   -0.00705829360000    0.01375988110000
S         1.54953905690000    1.08063934470000    0.03889009550000
N         2.52261571800000    0.60732971040000   -1.22933591860000
O         1.09442370630000    2.39843367990000   -0.28455545500000
O         2.29492486680000    0.89570256620000    1.24752365330000
C        -1.09032431590000    0.66654211310000    0.09792360310000
H        -5.63314087240000    0.93591027710000    0.29569165670000
H        -4.99757640490000   -0.76887550590000    0.16056789610000
H        -3.39651909890000    1.84106497550000    0.22019780120000
H        -3.20291967990000   -1.94343515710000   -0.20199182700000
H        -1.08259042950000   -3.12500202840000   -0.37245977030000
H         1.24359399870000   -3.10785157390000   -0.81384593450000
H         2.63441266540000   -1.15438448050000    1.09168481210000
H         3.31493376200000   -2.69171290370000    0.35446483350000
H         2.11022192130000    0.80371385830000   -2.12514331640000
H         2.88405802920000   -0.33011689010000   -1.14918406720000
H        -1.05112461840000    1.74035136120000    0.19564701350000
