  23
        -38.06803009
 C         -3.5785058356        2.9391464121        0.0428429627
 C         -2.2756153153        2.7130191013       -0.0700107588
 C         -1.6081116496        1.4159970092       -0.0397437493
 C         -2.3026698038        0.2063519451        0.0019180374
 C         -1.6323873341       -1.0057241240        0.0333801464
 C         -2.3852662277       -2.3014165265        0.0631315686
 C         -0.2435953889       -1.0185836717        0.0229190461
 C          0.4797575149        0.1718618811       -0.0212961736
 C          1.9341032592        0.2248254788       -0.0351060716
 C          2.7983307233       -0.7778699306       -0.0020340395
 F          2.5447222238       -2.0805906005        0.0521458357
 F          4.1196865040       -0.5997983884       -0.0192583192
 C         -0.2171274931        1.3786836878       -0.0544218961
 H         -3.9768622848        3.9386870356        0.0103183143
 H         -4.2997343609        2.1510948971        0.1745072701
 H         -1.6074286928        3.5573109314       -0.1904904764
 H         -3.3817024485        0.2084367172        0.0049308368
 H         -3.4392425511       -2.1372808300        0.2717685539
 H         -1.9749065561       -2.9647195370        0.8219289437
 H         -2.2996225770       -2.8048363413       -0.8996811331
 H          0.2662537979       -1.9678740868        0.0478109491
 H          2.3790941496        1.2087589801       -0.0769829564
 H          0.3356296435        2.3069971056       -0.0878293512
