  22
        -33.81929560
 C         -3.8232493835        0.6268095559        0.0003643617
 O         -2.4137602765        0.7897454466       -0.0015103024
 C         -1.6643927260       -0.3293424898        0.0003050256
 O         -2.1210411477       -1.4550935770        0.0006904428
 C         -0.2466423808       -0.0415634315       -0.0000153536
 C          0.4760908657        1.1403489117        0.0003376596
 C          1.8351265470        0.8034440015        0.0002502815
 C          2.9939375753        1.7422621262        0.0004172506
 C          1.9128992681       -0.5830387631       -0.0001594918
 C          3.1156392528       -1.4561872447       -0.0004053648
 N          0.6549827544       -1.0715786984       -0.0002094614
 H         -4.2298955786        1.1570306187       -0.8611882439
 H         -4.2225361688        1.0550762270        0.9208343966
 H         -4.0737554478       -0.4346074154       -0.0569926599
 H          0.0582366705        2.1268068064        0.0006240179
 H          2.6438244622        2.7705909998        0.0033279305
 H          3.6150706860        1.5875723096       -0.8815703896
 H          3.6180858445        1.5835148081        0.8795290646
 H          3.7281754909       -1.2615265465        0.8795905987
 H          3.7289557353       -1.2600298576       -0.8795226252
 H          2.8280402184       -2.5046578933       -0.0013741392
 H          0.3784771612       -2.0409922234       -0.0003740716
  22
        -33.81822966
 C         -3.6354530332       -1.0149268930       -0.0007836600
 O         -2.2200260283       -0.9486957965       -0.0012512978
 C         -1.6966422226        0.3099499804        0.0003498077
 O         -2.3864795991        1.3017009326        0.0017849382
 C         -0.2516552799        0.2767137517        0.0003127626
 C          0.6604668430        1.3203119482        0.0013159832
 C          1.9442967888        0.7617085728        0.0002132142
 C          3.2432036237        1.4941007640        0.0016816400
 C          1.7882497168       -0.6170756306       -0.0014267493
 C          2.8273981604       -1.6799261817       -0.0011913209
 N          0.4648133293       -0.8905984813       -0.0012217089
 H         -3.8916923559       -2.0715994655       -0.0097899307
 H         -4.0399507549       -0.5143099721       -0.8831003616
 H         -4.0386435989       -0.5299658256        0.8908560690
 H          0.4098486141        2.3618644312        0.0024243840
 H          3.0686745658        2.5659499793       -0.0188575905
 H          3.8407487720        1.2205206418       -0.8675657666
 H          3.8210892883        1.2517320339        0.8933171703
 H          3.4886859822       -1.5657606457       -0.8595700593
 H          2.3696378705       -2.6654883464       -0.0406062768
 H          3.4398814920       -1.6145273669        0.8979385607
 H          0.0432506356       -1.8049793973       -0.0021601314
  22
        -33.81813164
 C         -3.6316393365       -1.0518339631        0.0014746537
 O         -2.2181510420       -0.9377888292        0.0005144287
 C         -1.6980084046        0.3223578154       -0.0005550004
 O         -2.3775028358        1.3212345207       -0.0012215092
 C         -0.2533091980        0.2820312125       -0.0007170927
 C          0.6622379174        1.3227541080       -0.0004911385
 C          1.9441599247        0.7600605642       -0.0004050552
 C          3.2454756290        1.4881495035        0.0011275196
 C          1.7835807451       -0.6182962686       -0.0007608544
 C          2.8194141555       -1.6843470604        0.0010043065
 N          0.4594399185       -0.8875888128       -0.0008111554
 H         -3.9351809630       -1.6077818434       -0.8864704794
 H         -4.0798394485       -0.0561680882       -0.0079197870
 H         -3.9362955809       -1.5907680271        0.8995788555
 H          0.4148529998        2.3650689547       -0.0004575227
 H          3.0745017288        2.5605726922       -0.0186250524
 H          3.8418063522        1.2132303014       -0.8685212548
 H          3.8228609856        1.2432285803        0.8923625936
 H          3.4835078664       -1.5708334632       -0.8552381270
 H          2.3587525650       -2.6684206328       -0.0411826063
 H          3.4294319854       -1.6221246533        0.9020230913
 H          0.0343219437       -1.8003339586       -0.0011247084
