  23
        -29.60725887
 C          3.9273665931       -0.6494454052        0.0393629948
 C          2.9859546303        0.2865791299        0.0761583443
 C          1.5459679273        0.0792739575        0.0117766450
 C          0.9561568019       -1.1817139745       -0.0811836354
 C         -0.4140686249       -1.3088365390       -0.1394193402
 C         -1.2543620282       -0.1954693292       -0.1082841192
 C         -2.7040506427       -0.3584211489       -0.1823577844
 C         -3.3771410983       -1.4001418488        0.2888655731
 C         -0.6754392639        1.0797103947       -0.0191174708
 C         -1.5254507683        2.3147978993        0.0336918269
 C          0.7023536653        1.1906001548        0.0420496979
 H          4.9720326038       -0.3947435265        0.0935987452
 H          3.7039153068       -1.6989023471       -0.0463288875
 H          3.2860667094        1.3245355384        0.1612782148
 H          1.5712677825       -2.0675026169       -0.1117884017
 H         -0.8519332991       -2.2917063985       -0.2323922854
 H         -3.2473936294        0.4499922364       -0.6537656851
 H         -2.8913208590       -2.2151504016        0.7987965334
 H         -4.4479780472       -1.4683926383        0.1983020988
 H         -2.2577777963        2.2451539911        0.8366726048
 H         -2.0647481200        2.4508322837       -0.9040645094
 H         -0.9095781264        3.1950406739        0.2015407454
 H          1.1439099631        2.1757486973        0.1164405841
  23
        -29.60721388
 C          3.8427105755        0.6849168036       -0.1107754866
 C          2.9979909738       -0.3368841910       -0.0305846403
 C          1.5438799998       -0.2706944128        0.0139211591
 C          0.8132128655       -1.4573953930        0.0899119661
 C         -0.5635456138       -1.4355879713        0.1343404071
 C         -1.2706823237       -0.2341407510        0.1051422797
 C         -2.7302440062       -0.2315669409        0.1644315885
 C         -3.5121243347       -1.1858154374       -0.3237920707
 C         -0.5489545806        0.9681635398        0.0331135618
 C         -1.2563257605        2.2905866483       -0.0164130702
 C          0.8329769631        0.9292591051       -0.0134708361
 H          4.9076136924        0.5290226410       -0.1385730953
 H          3.5180562361        1.7104640783       -0.1522208635
 H          3.3997737404       -1.3428808274        0.0064924607
 H          1.3355773702       -2.4034704674        0.1186731880
 H         -1.1087395656       -2.3642971064        0.2147357276
 H         -3.1831825399        0.6287160952        0.6395443847
 H         -3.1163973371       -2.0456976819       -0.8379540382
 H         -4.5846622880       -1.1333662586       -0.2435623103
 H         -1.7833574383        2.4800052575        0.9190543070
 H         -1.9864127837        2.3076247806       -0.8242020043
 H         -0.5456893730        3.0982121073       -0.1745836800
 H          1.3730627701        1.8623652263       -0.0734923522
  23
        -29.60527945
 C          3.9981467337       -0.4633457855        0.0895209839
 C          2.9823296029        0.3913318703        0.1238721930
 C          1.5669761270        0.0688009540        0.0053591975
 C          1.0909622618       -1.2237622491       -0.2207778795
 C         -0.2616360888       -1.4549917617       -0.3227031683
 C         -1.2005896615       -0.4295316209       -0.1813053256
 C         -2.6131649393       -0.8014159530       -0.2718816777
 C         -3.6023035706       -0.3367068518        0.4787704346
 C         -0.7374085695        0.8773049452        0.0190344095
 C         -1.6574585907        2.0588897827        0.1034617535
 C          0.6294006061        1.0950839132        0.1051142005
 H          5.0161379804       -0.1269930499        0.1879798474
 H          3.8641994649       -1.5241202836       -0.0351608690
 H          3.1921997347        1.4462186873        0.2573187300
 H          1.7796969490       -2.0473806403       -0.3256440374
 H         -0.6169988721       -2.4609622645       -0.4994994048
 H         -2.8248075743       -1.5786049988       -0.9978847027
 H         -3.4462146819        0.3901735819        1.2562647716
 H         -4.6111243745       -0.6958646404        0.3607790565
 H         -2.5691577453        1.8875610960       -0.4636584207
 H         -1.1614642722        2.9472841397       -0.2830186355
 H         -1.9312456134        2.2574503613        1.1398461993
 H          0.9819661007        2.1071973834        0.2551483734
  23
        -29.60521561
 C          3.7743151319        0.8238186721        0.3461267677
 C          3.0331023644       -0.2190932703       -0.0091006390
 C          1.5790633659       -0.2741572744       -0.0780738150
 C          0.9563039326       -1.4976467300       -0.3324277198
 C         -0.4157766229       -1.5819781159       -0.3995058712
 C         -1.2296998223       -0.4649189000       -0.1977723698
 C         -2.6769580781       -0.6749915612       -0.2565197305
 C         -3.5876239203       -0.1304342763        0.5383963429
 C         -0.6181407723        0.7761894578        0.0269104128
 C         -1.4019695657        2.0471434448        0.1714360615
 C          0.7655100715        0.8454150200        0.0802149355
 H          4.8490225401        0.7644451935        0.3704571144
 H          3.3499615633        1.7714020979        0.6306460185
 H          3.5283781499       -1.1472082669       -0.2698002468
 H          1.5579597242       -2.3835656458       -0.4794176699
 H         -0.8831720651       -2.5371110781       -0.5958547288
 H         -2.9932677526       -1.3987403439       -0.9995224766
 H         -3.3308256071        0.5477679091        1.3329476337
 H         -4.6328920845       -0.3721666622        0.4403352161
 H         -2.3404021583        1.9938461164       -0.3750371482
 H         -0.8219665776        2.8888769667       -0.2022093866
 H         -1.6274306143        2.2403495118        1.2203709751
 H          1.2219318326        1.8107921562        0.2417002066
