  29
        -45.82176077
 C         -6.5483264111        0.2300666658        0.0010328580
 C         -5.1157771232       -0.1653712956       -0.0006112203
 C         -4.5807096795       -1.4172421583       -0.0043962073
 C         -3.1735771399       -1.4290682587       -0.0042155094
 C         -2.6228227750       -0.1748211008       -0.0004611409
 C         -1.2465779456        0.1926112975        0.0000646183
 C         -0.6994606731        1.4524278903        0.0000707910
 C          0.6994640589        1.4524255945       -0.0000010596
 C          1.2465771666        0.1926067570        0.0000464666
 C          2.6228216831       -0.1748255384        0.0005447761
 C          3.1735789130       -1.4290689059        0.0042700295
 C          4.5807120218       -1.4172434789        0.0044217141
 C          5.1157788822       -0.1653726375        0.0005900796
 C          6.5483272650        0.2300672632       -0.0010940112
 S          3.8705566441        1.0445805687       -0.0032192633
 S         -0.0000019789       -1.0253642519       -0.0000558699
 S         -3.8705594861        1.0445788294        0.0031801545
 H         -7.1778213093       -0.6565238669       -0.0109830958
 H         -6.7808519357        0.8392298790       -0.8722447432
 H         -6.7847462851        0.8176684892        0.8880477902
 H         -5.1797634805       -2.3108511877       -0.0073731909
 H         -2.5771384909       -2.3242133633       -0.0070626553
 H         -1.3022648216        2.3435160282        0.0001615185
 H          1.3022717710        2.3435107594       -0.0001694412
 H          2.5771410830       -2.3242123283        0.0071412818
 H          5.1797677190       -2.3108488705        0.0074043412
 H          7.1778370129       -0.6565184686        0.0106640865
 H          6.7809444338        0.8390371904        0.8723024925
 H          6.7846794181        0.8178794850       -0.8879916478
  29
        -45.81717012
 C         -5.8627189657        1.7105529229       -0.0044892239
 C         -4.8025730943        0.6689913904       -0.0018887577
 C         -4.9443681054       -0.6856517193        0.0029404173
 C         -3.7216549919       -1.3810739852        0.0046058160
 C         -2.6284751521       -0.5520998891        0.0006271416
 C         -1.2474135500       -0.9101479197        0.0009845634
 C         -0.6989118278       -2.1722575951        0.0026818351
 C          0.6988932519       -2.1722663287        0.0026275518
 C          1.2474203064       -0.9101695273        0.0009666005
 C          2.6284792879       -0.5521218339        0.0003139757
 C          3.7216332252       -1.3810662716       -0.0017934723
 C          4.9443540240       -0.6856365093       -0.0014194789
 C          4.8025998116        0.6689652297        0.0008900743
 C          5.8627194665        1.7105940932        0.0026704495
 S          3.1271550936        1.1176754478        0.0024230345
 S          0.0000075815        0.3013213834       -0.0007575640
 S         -3.1271503255        1.1177108642       -0.0056121076
 H         -6.8439883950        1.2418026831        0.0002982864
 H         -5.7789717241        2.3430337945       -0.8881588036
 H         -5.7745688657        2.3520891061        0.8721841912
 H         -5.9025170243       -1.1752376870        0.0055883819
 H         -3.6488086093       -2.4532414833        0.0085239307
 H         -1.2913012052       -3.0691210804        0.0038208913
 H          1.2912773103       -3.0691300550        0.0039428051
 H          3.6487888402       -2.4532221034       -0.0035225534
 H          5.9024733187       -1.1752373806       -0.0027562100
 H          6.8439580948        1.2418690603       -0.0045067717
 H          5.7806847259        2.3420396839        0.8873479019
 H          5.7727751173        2.3532560202       -0.8730265730
