21
 energy: -34.387084384295 gnorm: 0.000074562467 xtb: 6.4.1 (23d549d)
C         2.80307597270000   -2.20954128650000    0.26083919880000
C         2.54143428050000   -0.99184316940000   -0.19640340690000
C         1.25120768790000   -0.31694316840000   -0.09025635630000
C         0.05597709200000   -1.01808487030000   -0.08396812470000
C        -1.18059387410000   -0.36865954060000   -0.01966213930000
C        -2.47016978600000   -1.04024895580000   -0.01436742910000
C        -2.67105390950000   -2.35273391140000   -0.03361648550000
C        -1.10028547060000    1.02454982630000    0.02613842040000
F        -2.22937056780000    1.75368544770000    0.07184423380000
N         0.00287084330000    1.72828323400000    0.03710277180000
C         1.17173932280000    1.09452047970000   -0.01424473750000
N         2.27092869630000    1.89669793940000   -0.02344454040000
H         3.77228591230000   -2.66134796750000    0.13883257930000
H         2.06707853440000   -2.79516194640000    0.78514824390000
H         3.32178734380000   -0.43267660970000   -0.69766678780000
H         0.08375705630000   -2.09348673970000   -0.15810820770000
H        -3.32241092190000   -0.37381533510000    0.01129469730000
H        -1.86646686180000   -3.06774516090000   -0.05669638820000
H        -3.66581301540000   -2.76274099090000   -0.02660836350000
H         2.09385032860000    2.86829694820000    0.16992812330000
H         3.15702235920000    1.52062499660000    0.26257084780000
