  47
        -56.03184347
 C          2.9810614084       -4.0646996814        2.1822233056
 C          2.6088099493       -3.5337986521        1.0207400856
 C          2.6905537080       -2.1391659285        0.6867680928
 C          2.3268491304       -1.5497539284       -0.4957294574
 C          2.5282305836       -0.1564823364       -0.5366907548
 C          2.1547326516        0.6557422866       -1.7375713763
 C          0.6390463295        0.8882427767       -1.8056480167
 C          0.1346708944        1.7504022195       -0.6516134936
 C         -1.3597722234        2.0599350014       -0.7399843541
 C         -2.2483123510        0.8355034317       -0.5306651967
 C         -3.7281996413        1.2109745657       -0.4932072915
 C         -4.6201554258       -0.0148816848       -0.3104183072
 C         -6.0968515935        0.3299506528       -0.1105053014
 C         -6.7601007241        1.0416697554       -1.2909541868
 C         -6.7819188916        0.2038757603       -2.5639915479
 C          3.0527535836        0.3316157773        0.6410780749
 C          3.3893279653        1.6880468128        0.9740117524
 C          3.8618935542        2.0897642812        2.1511945257
 S          3.3006890331       -0.9502806586        1.7964870839
 H          2.8972270819       -5.1192628507        2.3759681716
 H          3.3820302556       -3.4537365935        2.9740855075
 H          2.2078871441       -4.1617770329        0.2346017876
 H          1.9267370900       -2.1089096949       -1.3243147930
 H          2.4676441030        0.1146397247       -2.6343545167
 H          2.6703282960        1.6166554193       -1.7294980570
 H          0.1353772484       -0.0793407612       -1.7899920909
 H          0.4002493808        1.3784031001       -2.7525799983
 H          0.6857234299        2.6944329528       -0.6514153792
 H          0.3430277308        1.2480117429        0.2955472874
 H         -1.5800505868        2.5052112374       -1.7135366259
 H         -1.6053104998        2.8022186158        0.0237570228
 H         -1.9735614574        0.3486005523        0.4082806237
 H         -2.0867830523        0.1173044903       -1.3366618680
 H         -3.9853565112        1.7210481919       -1.4232460133
 H         -3.9030563602        1.9095257016        0.3288392398
 H         -4.2787050613       -0.5668757247        0.5693807987
 H         -4.5082657064       -0.6772328453       -1.1704591492
 H         -6.1904130521        0.9653095112        0.7740605701
 H         -6.6439269017       -0.5949614216        0.0901313823
 H         -6.2509995319        1.9870247890       -1.4852861947
 H         -7.7887796372        1.2792515239       -1.0080661650
 H         -5.7760200912        0.0385219925       -2.9407737692
 H         -7.3534007145        0.7100845393       -3.3389969034
 H         -7.2428678751       -0.7634554441       -2.3749474151
 H          3.2313243446        2.4113205661        0.1852534056
 H          4.0255109731        1.3956479204        2.9588897077
 H          4.0977178873        3.1215185267        2.3427290645
