22
 energy: -29.879007016161 gnorm: 0.000064640478 xtb: 6.4.1 (23d549d)
C        -3.82474380410000   -0.47765029560000    0.24834932010000
C        -2.95665303240000    0.49976489710000    0.01848591690000
C        -1.50566721860000    0.37715389000000   -0.04621525940000
C        -0.81643417480000   -0.82962853130000    0.06117179280000
C         0.56958514750000   -0.86212435260000    0.00020252970000
C         1.27259712890000   -2.18212495510000    0.07387758040000
C         1.24576062200000    0.35530097030000   -0.16808701200000
C         2.69633404260000    0.51456727890000   -0.22939865490000
C         3.59029239760000   -0.12483428710000    0.51278714030000
C         0.45670285600000    1.50333432110000   -0.30416586000000
N        -0.85329728310000    1.52720577730000   -0.23956738310000
H        -4.88392961040000   -0.28795739780000    0.28099413250000
H        -3.52542724280000   -1.49877145510000    0.41516725600000
H        -3.30362119460000    1.51241124340000   -0.13664303210000
H        -1.35996049600000   -1.75427766370000    0.18090028720000
H         0.63676637610000   -2.96787861970000   -0.32963119320000
H         1.49503250190000   -2.43477317480000    1.11068328320000
H         2.20759564760000   -2.15817386210000   -0.48071507710000
H         3.03207399980000    1.28029545460000   -0.91928014410000
H         3.31361386610000   -0.85111015330000    1.25668109530000
H         4.64300989310000    0.08447002730000    0.42296289580000
H         0.93026739500000    2.46525688330000   -0.46207648780000
