38
 energy: -52.537303606057 gnorm: 0.000037265795 xtb: 6.4.1 (23d549d)
C         4.74439407340000   -2.78304840480000    0.09148630790000
C         4.33633713380000   -1.57301917890000   -0.27258001770000
C         3.04255159870000   -0.96679000430000    0.01057180740000
C         2.03793857100000   -1.60608647950000    0.74062558300000
C         0.82055157330000   -0.99560211140000    0.93627678580000
C         0.55693271150000    0.28294888860000    0.44020068100000
O        -0.71115569630000    0.74842793880000    0.64941598830000
C        -1.35093871960000    1.50432152660000   -0.35787550970000
C        -2.79441481170000    1.02546872550000   -0.64455866410000
C        -3.63246714290000    0.80142479080000    0.62213333660000
C        -3.33539986820000   -0.54600277370000    1.27740244390000
C        -3.44731274720000   -1.64948788590000    0.22972472350000
C        -2.52192599360000   -1.32196293070000   -0.93941121530000
O        -2.83882869090000   -0.07543093360000   -1.52809071380000
C         1.57873420470000    0.97893723090000   -0.22145888180000
C         1.49484585920000    2.39014605200000   -0.61439528730000
C         1.03840681320000    3.35197087860000    0.17478476880000
C         2.78308935350000    0.31986938100000   -0.45102194990000
H         5.72470734410000   -3.14389377440000   -0.16839932550000
H         4.12906596880000   -3.46110626140000    0.65727903440000
H         5.01002840920000   -0.94427531630000   -0.84258179730000
H         2.20021552940000   -2.59478397370000    1.13923603130000
H         0.03610950150000   -1.50216271630000    1.47868052770000
H        -0.78995646230000    1.45259707700000   -1.29702593700000
H        -1.39997179740000    2.55480524050000   -0.04205803710000
H        -3.24969052680000    1.83619963040000   -1.22961442840000
H        -4.68691077070000    0.83052115900000    0.33706414740000
H        -3.44111139010000    1.61643417430000    1.32049956090000
H        -4.04133217530000   -0.72088876970000    2.09212544830000
H        -2.32844965120000   -0.53344329130000    1.69301888240000
H        -4.47508454090000   -1.70756508900000   -0.13567558770000
H        -3.17311087690000   -2.61736200430000    0.65143434300000
H        -2.63789188750000   -2.04869096480000   -1.74752762390000
H        -1.47681839770000   -1.33702408040000   -0.60484569050000
H         1.92143378100000    2.63525767670000   -1.57976822190000
H         0.65911112450000    3.14140005470000    1.16132426870000
H         1.04235103780000    4.38507391040000   -0.12885930010000
H         3.55879635280000    0.85327708880000   -0.98412224650000
