  26
        -41.23419383
 C         -4.4800109960        0.6891593459       -0.4922274176
 C         -3.6694298819       -0.0597659407        0.2421383112
 C         -2.2107453118       -0.1228392101        0.1360476396
 C         -1.6196907483       -1.3822294200        0.2476446673
 C         -0.2583949908       -1.5884681838        0.1323794076
 C          0.3002475569       -2.9744798475        0.2578962500
 C          0.5687977982       -0.4731371855       -0.0788716241
 C          2.0071662015       -0.6556893796       -0.2195470316
 C          2.9579472588        0.2484313439       -0.0434951439
 F          2.8276328958        1.5186109245        0.3255812667
 F          4.2556426611       -0.0186022062       -0.2063509076
 C         -0.0153865758        0.7888961534       -0.1549917014
 C         -1.3831807430        0.9903718896       -0.0530417568
 C         -1.9053674953        2.3941876111       -0.1128435492
 H         -5.5489361842        0.6468655684       -0.3661100766
 H         -4.1191191780        1.3457940290       -1.2640298997
 H         -4.0960656096       -0.7471783779        0.9637536662
 H         -2.2634512216       -2.2351431519        0.4150678241
 H         -0.4910405400       -3.6798566237        0.4984618747
 H          1.0528142310       -3.0207652802        1.0435577767
 H          0.7627285668       -3.2914045905       -0.6769418478
 H          2.3610658784       -1.6382639862       -0.4917120266
 H          0.6129835620        1.6515636948       -0.3118390964
 H         -1.1611096310        3.0850473979        0.2776529338
 H         -2.8215702153        2.4961844141        0.4634093547
 H         -2.1150073489        2.6811240011       -1.1433080223
