34
 energy: -52.775556924091 gnorm: 0.000039960337 xtb: 6.4.1 (23d549d)
C        -4.41820664450000    1.76116437370000   -0.92142665400000
C        -3.26889803720000    1.98538558530000   -0.29632724030000
C        -2.27482997250000    0.98455133150000    0.07201109870000
C        -2.34685704650000   -0.35333252910000   -0.30881055970000
C        -1.38687747350000   -1.29038834950000    0.05260450950000
C        -1.49268771870000   -2.69472357600000   -0.33849207640000
C        -2.10572715190000   -3.14727122600000   -1.42388367890000
C        -0.30036239690000   -0.87188436650000    0.83893159500000
O         0.67784642920000   -1.75777689950000    1.22896377840000
C         1.64605618360000   -2.03930092240000    0.21753638220000
C         2.39434981190000   -0.79368218210000   -0.17666511630000
C         3.49890586970000   -0.37442079200000    0.55326902000000
C         4.13546787070000    0.81315119260000    0.23914561000000
C         3.66799116570000    1.59702825550000   -0.80221747750000
C         2.56414169450000    1.18817093280000   -1.53077000940000
C         1.92929240580000   -0.00095626520000   -1.21868663950000
C        -0.20032851030000    0.45459072310000    1.23315980560000
C        -1.17507127250000    1.35197338220000    0.85169436590000
F        -1.04507716010000    2.63560238020000    1.25338960550000
H        -5.09237128840000    2.56817413510000   -1.15004553200000
H        -4.73960315710000    0.77915019220000   -1.22343665690000
H        -3.01505790580000    2.99691532110000   -0.00753964810000
H        -3.18826417030000   -0.68294492690000   -0.89630804900000
H        -1.00030956310000   -3.38646869590000    0.33343103980000
H        -2.57770448300000   -2.49024820400000   -2.13538049870000
H        -2.14649865320000   -4.19899844640000   -1.64931721980000
H         1.15454370870000   -2.48329175710000   -0.65946182350000
H         2.31246750650000   -2.77513904730000    0.67287419840000
H         3.85562560240000   -0.98151711050000    1.37267157290000
H         4.99543953940000    1.12999976590000    0.81072590510000
H         4.16206864380000    2.52625418310000   -1.04428031950000
H         2.19377012010000    1.79775452500000   -2.34162962870000
H         1.06500782620000   -0.31707391390000   -1.78657516630000
H         0.63565210950000    0.78106136390000    1.83106299890000
