  24
        -37.66570235
 C          4.2486451044       -0.9147673787       -0.0809503493
 C          3.3004774385        0.0144675358        0.0040125524
 C          1.8836882209       -0.2333240923        0.0350116396
 N          1.3186629948       -1.4627878773       -0.0167305749
 N         -0.0110794383       -1.4291215353        0.0251073427
 C         -0.3374786472       -0.1510718546        0.0843337829
 N         -1.6402783920        0.2964985882        0.2014412160
 C         -2.7799993917       -0.4329388440       -0.0234267721
 C         -4.0301858954        0.3754392589        0.2720654414
 O         -2.7902332907       -1.5681646370       -0.4211650489
 C          0.8203085382        0.6750602089        0.0929350753
 C          0.9089381851        2.1158958124        0.1609895778
 C          0.0047377778        2.9742813952       -0.3000958497
 H          5.2904054348       -0.6479160382       -0.0966106185
 H          4.0302800930       -1.9677048723       -0.1397817398
 H          3.5769590630        1.0586043948        0.0542160524
 H          1.7837462353       -2.3520754624       -0.0901692476
 H         -1.7297729529        1.2566655447        0.5027616583
 H         -4.0390372655        0.6834746015        1.3155181218
 H         -4.9043892612       -0.2367336369        0.0725749524
 H         -4.0643957891        1.2628408304       -0.3566940317
 H          1.8109320524        2.4989269680        0.6232333474
 H         -0.8791371723        2.6590838625       -0.8289915101
 H          0.1445790767        4.0373153284       -0.2044489646
