  20
        -34.89425346
 C         -0.3399947022        2.8592305514       -0.5365359859
 C         -1.2861754539        2.1745134137        0.0920264394
 C         -1.4181519445        0.7179683141        0.1089237147
 C         -2.7005149104        0.1806067146        0.0059672869
 C         -2.9058470471       -1.1832544820       -0.0539243908
 C         -1.8208375488       -2.0432627109        0.0084381070
 C         -0.5450602752       -1.5328476079        0.1443509593
 C         -0.3208352889       -0.1570059950        0.1973663254
 C          1.0197579070        0.3687915088        0.4302010007
 C          2.1615010445       -0.1922303112        0.0676030959
 F          2.3295384144       -1.3104833221       -0.6316944924
 F          3.3577942069        0.3292406303        0.3424238739
 H         -0.3273323087        3.9360103421       -0.5304886882
 H          0.4371758054        2.3762738440       -1.1046818962
 H         -2.0839346100        2.7079604909        0.5950413170
 H         -3.5440320075        0.8540989852       -0.0480226542
 H         -3.9074076852       -1.5761456176       -0.1451920204
 H         -1.9704023319       -3.1114842294       -0.0343348256
 H          0.2895968662       -2.2106656957        0.2293103261
 H          1.0987921710        1.3089115050        0.9565862264
