  18
        -26.45095375
 C          1.6632587735        1.9207054721        0.0000351068
 C          0.6629527729        0.8054562462       -0.0000491035
 C          1.0524134644       -0.5277366898       -0.0000048521
 F          2.3727242358       -0.8351701798        0.0000130194
 C          0.1391069465       -1.5640819833        0.0000038405
 C         -1.2122378541       -1.2705649301       -0.0000035350
 C         -1.6474324907        0.0479435926       -0.0000375063
 C         -3.1082032485        0.3840818619        0.0000482242
 C         -0.7009459991        1.0644638215       -0.0000617386
 H          2.6774472741        1.5310990066       -0.0019898917
 H          1.5299109191        2.5457149374        0.8820635591
 H          1.5272713389        2.5483132694       -0.8797219601
 H          0.4931280821       -2.5830375265        0.0000154395
 H         -1.9316389592       -2.0758052402       -0.0000129714
 H         -3.7151041963       -0.5173292568       -0.0015823321
 H         -3.3612850630        0.9755836403       -0.8787891982
 H         -3.3617616938        0.9726331012        0.8807429921
 H         -1.0315469609        2.0936758807       -0.0001420634
