42
 energy: -59.770972076272 gnorm: 0.000171727965 xtb: 6.4.1 (23d549d)
C        -2.34564354870000    2.58184869840000   -5.06067349920000
C        -2.62478410640000    3.10171276610000   -3.87195283290000
C        -1.94605537990000    2.81480528510000   -2.61253346050000
C        -2.31459679710000    3.53000568370000   -1.47300655740000
C        -1.69871128200000    3.31173248210000   -0.24600204590000
C        -2.12400403660000    4.10419988710000    0.90301844770000
C        -1.54081208610000    4.16070193140000    2.09405500950000
C        -0.69846609490000    2.34171751180000   -0.15297401940000
C        -0.32553309720000    1.61529151370000   -1.27447191570000
O         0.63197156380000    0.64627575610000   -1.29036903080000
C         1.30687136400000    0.32749898060000   -0.09297470420000
C         2.31477302330000   -0.77651718060000   -0.40306041000000
C         1.65852266320000   -2.06965841810000   -0.89061376960000
C         0.82902380070000   -2.81391331760000    0.15676622100000
C         1.66222818880000   -3.33632398280000    1.32615946590000
C         0.82659338610000   -4.23438945050000    2.24838459480000
C         1.66559717760000   -4.70018763390000    3.42185139070000
O         2.12049823460000   -5.79965636270000    3.53299948330000
O         1.90277282570000   -3.75798904720000    4.35564798830000
C        -0.94790129960000    1.85528733830000   -2.49784513010000
H        -2.90435605520000    2.86016665870000   -5.93785795300000
H        -1.55572714170000    1.86694197540000   -5.21305095960000
H        -3.42886201730000    3.82344125180000   -3.79208567440000
H        -3.09106175480000    4.27836746610000   -1.54777824740000
H        -3.00425634930000    4.71008979080000    0.72546841410000
H        -0.65346668750000    3.60225208590000    2.33916277620000
H        -1.93192429290000    4.78471830780000    2.87922884850000
H        -0.22866983560000    2.16166360710000    0.79951629280000
H         0.58933327080000   -0.00350895230000    0.67032329340000
H         1.83728757320000    1.21115666460000    0.29062372860000
H         2.92028597230000   -0.95902437400000    0.48512153470000
H         2.97558379270000   -0.41011497710000   -1.19027691950000
H         2.44183508110000   -2.73775850610000   -1.25450763310000
H         1.01293181510000   -1.81998270480000   -1.73383464660000
H         0.34891145210000   -3.66281954250000   -0.33472242480000
H         0.03398628120000   -2.16730591630000    0.53311718830000
H         2.06766167720000   -2.49666416440000    1.89638208600000
H         2.50493385090000   -3.91444151660000    0.94210461840000
H         0.48867626970000   -5.11257434040000    1.69811992240000
H        -0.04944021650000   -3.68858745650000    2.61014484970000
H         1.47171068180000   -2.91875272270000    4.14784434910000
H        -0.63193896440000    1.26827121690000   -3.34416051420000
