23
 energy: -42.290791657558 gnorm: 0.000080377405 xtb: 6.5.0 (unknown)
C            1.88979867210000        2.08550235170000       -1.12557039210000
C            1.04446134270000        2.14154762150000       -0.10787092260000
C           -0.15208430280000        1.30619043270000        0.03098862560000
C           -1.34963689760000        1.92424926660000        0.38235652060000
C           -2.54016404500000        1.22573479940000        0.42984304930000
C           -2.58469006150000       -0.12906251290000        0.12915818980000
C           -3.85230303830000       -0.92253953770000        0.15444155160000
C           -1.38036015590000       -0.73943846670000       -0.19192648790000
F           -1.38886861040000       -2.06726860250000       -0.45893440240000
C           -0.15907315760000       -0.07138362160000       -0.23248683530000
C            1.04025576080000       -0.86579956960000       -0.51082243890000
C            2.16913888660000       -0.79881770570000        0.17131124480000
F            2.43604007040000        0.00998873280000        1.18923025450000
F            3.23249670920000       -1.55875043040000       -0.07573594570000
H            2.72971445070000        2.75440309710000       -1.19801485430000
H            1.77078240520000        1.37693541390000       -1.92875070890000
H            1.17184373440000        2.89234192470000        0.66099766740000
H           -1.34312159790000        2.98179337200000        0.60063313970000
H           -3.45262432220000        1.73625330820000        0.69892872950000
H           -4.69185713000000       -0.29781087980000        0.44536931270000
H           -3.76460399350000       -1.75092156230000        0.85631975810000
H           -4.04995146290000       -1.34791640320000       -0.82880678530000
H            0.96770603780000       -1.63025006460000       -1.27024390050000
