  49
        -65.99828342
 C         -5.9204658614       -2.8828206063       -0.0006147981
 C         -5.5123360044       -1.7259966110       -0.5100666736
 C         -4.1772227834       -1.1558818529       -0.4185790940
 C         -3.9207212954        0.0876652519       -0.9956459184
 C         -2.6716176682        0.6709496423       -0.9321201939
 C         -1.6177967303        0.0497369691       -0.2604725621
 C         -1.8728256368       -1.2050392780        0.3028787830
 C         -3.1154739369       -1.7977136064        0.2203167967
 S         -0.5964213829       -2.0533249475        1.1953438793
 C          0.8056296251       -1.4474758648        0.2933951513
 C          1.9216564739       -2.2530189415        0.2022701227
 C          3.0797285303       -1.8073870956       -0.4361047678
 C          4.2907968692       -2.6067890785       -0.5367082596
 C          4.4806812293       -3.8285428692       -0.0513075944
 C          3.0507834285       -0.5314463065       -0.9989994354
 C          1.9273494800        0.2659925624       -0.9251049181
 C          0.7769366935       -0.1649554006       -0.2632062228
 N         -0.3587173456        0.6350453631       -0.1696385790
 C         -0.2177636640        2.0764715230       -0.1858153974
 C          0.6722799006        2.5409524996        0.9715172417
 C          0.7256847943        4.0632096470        1.0982663168
 C          1.3965211085        4.7862309236       -0.0725469865
 C          2.8549344342        4.3979647121       -0.3227394679
 C          3.7715603419        4.7149696724        0.8526965457
 H         -6.9355132600       -3.2196920806       -0.1225473699
 H         -5.2709115824       -3.5370492540        0.5546000549
 H         -6.2214763764       -1.1152820531       -1.0562831201
 H         -4.7143472739        0.6059688918       -1.5145476503
 H         -2.5126049280        1.6195869042       -1.4213899143
 H         -3.2516408411       -2.7625407098        0.6817373197
 H          1.8845370179       -3.2290107195        0.6587583119
 H          5.1010741347       -2.1235911062       -1.0698506575
 H          3.7206306361       -4.3662011584        0.4885435035
 H          5.4187683587       -4.3407129603       -0.1791626344
 H          3.9259829770       -0.1570425033       -1.5107857271
 H          1.9436577211        1.2355554924       -1.3969009259
 H         -1.2084021446        2.5101867158       -0.0422812556
 H          0.1727418458        2.4302032625       -1.1468651976
 H          1.6788113729        2.1394261659        0.8571200545
 H          0.2617617877        2.1268745288        1.8959647516
 H          1.2535481072        4.3135856871        2.0196277638
 H         -0.2940584346        4.4450910890        1.1962824856
 H          1.3546264967        5.8598269601        0.1283339540
 H          0.8238061480        4.6087188684       -0.9854787054
 H          3.2041545976        4.9471011887       -1.2009283662
 H          2.9259967006        3.3346333827       -0.5569013304
 H          3.6796250352        5.7613723538        1.1360399362
 H          4.8078571894        4.5228817928        0.5838758455
 H          3.5285572960        4.1004767468        1.7156130417
