  25
        -44.38281628
 C          2.3352500945       -3.2697618218       -0.3390029516
 C          1.0782784070       -2.8534543497       -0.2354602656
 C          0.5902890252       -1.4859131916       -0.1082163218
 C         -0.7827631170       -1.2635306770       -0.1607938020
 C         -1.3444095276        0.0002912893       -0.0437779634
 C         -2.8306288599        0.0762558272       -0.0537459558
 O         -3.5270894516       -0.6613072227       -0.6942056413
 O         -3.3816940611        1.0203809738        0.7413550459
 C         -0.5151740107        1.1279103443        0.0754140888
 N         -1.0399192179        2.4087806780        0.1255544926
 C          0.8770464748        0.9390539339        0.1648377129
 C          1.7629065316        2.0931473206        0.3760861386
 C          2.9024932331        2.3001515194       -0.2659089941
 C          1.3872271044       -0.3510121297        0.0790617176
 F          2.7204012482       -0.4933193460        0.2129883212
 H          2.5554178957       -4.3194468334       -0.4362299093
 H          3.1832233635       -2.6098224214       -0.3339385812
 H          0.2818247564       -3.5871422584       -0.2606538836
 H         -1.4558787367       -2.0978605609       -0.2886255836
 H         -2.7186688590        1.4837244744        1.2730904043
 H         -1.9134815883        2.5485990525       -0.3608064858
 H         -0.3708715046        3.1419435700       -0.0541674821
 H          1.4280137914        2.7999510773        1.1268025595
 H          3.2635471615        1.6257246645       -1.0232252373
 H          3.5181867831        3.1575419233       -0.0546854165
