  30
        -43.78030931
 C          5.4221788589       -1.4158896603       -0.0251345851
 C          4.8463217374       -0.2195104865        0.0103315263
 C          3.4181378654        0.0682914517        0.0054048669
 C          3.0127434285        1.4145710384       -0.0034092300
 C          1.6858744151        1.7829096477       -0.0087675363
 C          0.7165639763        0.7866778265       -0.0033842027
 C          1.1197699382       -0.5710388994        0.0067589625
 C          2.4527474757       -0.9362323733        0.0110324775
 N          0.0000041204       -1.3652892518        0.0127742132
 C         -1.1197752649       -0.5710571743        0.0074108651
 C         -2.4527501120       -0.9362691358        0.0124495352
 C         -3.4181407578        0.0682507550        0.0074449601
 C         -4.8463016286       -0.2196114838        0.0128452396
 C         -5.4221109187       -1.4157733350       -0.0305799825
 C         -3.0127763175        1.4145351734       -0.0012833983
 C         -1.6859107051        1.7828839861       -0.0077705221
 C         -0.7165919895        0.7866624163       -0.0031076988
 H          6.4935671687       -1.5208199363       -0.0182833597
 H          4.8623129080       -2.3344174680       -0.0639872474
 H          5.4793000857        0.6591541184        0.0439482254
 H          3.7746761503        2.1810352443       -0.0071483383
 H          1.4012338303        2.8243483507       -0.0163907158
 H          2.7324990978       -1.9781617362        0.0217450753
 H          0.0000182379       -2.3704827403        0.0215946463
 H         -2.7325113944       -1.9782031295        0.0236017249
 H         -5.4792412298        0.6588132032        0.0535007970
 H         -4.8622196654       -2.3339203138       -0.0777356439
 H         -6.4934457416       -1.5208842215       -0.0226124801
 H         -3.7747252428        2.1809791583       -0.0043849557
 H         -1.4012831476        2.8243410025       -0.0150765755
