  51
        -58.13868102
 C          5.2635874625       -2.8613565245       -1.0575348722
 C          3.9712978064       -2.5793867373       -1.8151742246
 C          2.9388960783       -1.8098478226       -0.9897470708
 C          3.3510395463       -0.3662878335       -0.7064224681
 C          2.3276109589        0.3964395180        0.1352302037
 C          1.0255572852        0.6908768568       -0.6189234751
 C          0.0715467150        1.4617627953        0.2421023010
 C         -0.0022347908        2.8217927524        0.2207268620
 C          0.7492172593        3.7823798790       -0.6365374276
 S         -1.1579428861        3.4127235839        1.3702593169
 C         -1.5341655730        1.7998965515        1.8892583935
 C         -2.5481933660        1.6020655018        2.9620284742
 C         -0.8101090356        0.8712448940        1.2021375726
 C         -0.9477848883       -0.6045246179        1.4371586894
 C         -2.2510832920       -1.1710283876        0.8570429830
 C         -2.2980226050       -1.1280988904       -0.6714094072
 C         -1.4897033399       -2.2446778106       -1.3381864384
 C         -2.1880962911       -3.6063548908       -1.3263308517
 C         -3.3489064970       -3.6896800618       -2.3104868822
 H          5.9271043187       -3.4770405247       -1.6607559000
 H          5.0531649262       -3.3912970488       -0.1308389205
 H          5.7865695691       -1.9397701841       -0.8159041878
 H          3.5305255751       -3.5315530674       -2.1210526146
 H          4.1979998345       -2.0151324769       -2.7227945723
 H          2.7769375013       -2.3310597175       -0.0426185482
 H          1.9950270815       -1.8134120877       -1.5386749111
 H          3.5026987100        0.1577731882       -1.6534025523
 H          4.3016981802       -0.3651464182       -0.1702569526
 H          2.7653251523        1.3460584051        0.4525893568
 H          2.1037334608       -0.1744399571        1.0392867181
 H          0.5608142790       -0.2414408762       -0.9357214823
 H          1.2572401188        1.2702360301       -1.5147019783
 H          0.5321265391        3.6109555191       -1.6917875011
 H          1.8239003655        3.6736219050       -0.4905053714
 H          0.4680903097        4.8029061934       -0.3892957461
 H         -2.5368334804        2.4444536942        3.6509018211
 H         -2.3443394918        0.6889400347        3.5179861108
 H         -3.5524014932        1.5287904602        2.5408763378
 H         -0.9363171465       -0.7957506053        2.5141180373
 H         -0.0970295077       -1.1284714948        1.0039566846
 H         -3.0875937927       -0.5934927855        1.2531428351
 H         -2.3706162936       -2.2010458720        1.1991560465
 H         -1.9230669524       -0.1572092068       -1.0022758117
 H         -3.3365240430       -1.1989501797       -0.9983617104
 H         -0.5281556107       -2.3454608723       -0.8300478976
 H         -1.2858376066       -1.9692199337       -2.3760697800
 H         -2.5505883738       -3.8254169890       -0.3201489834
 H         -1.4558600347       -4.3754563015       -1.5846317852
 H         -4.1266778287       -2.9716862064       -2.0628522322
 H         -3.7894072494       -4.6841042539       -2.2921894566
 H         -3.0048732626       -3.4857362880       -3.3224383712
