  31
        -48.09188489
 C         -3.9803912977        2.7898021089       -0.4122547325
 C         -2.6642337953        2.6242789146       -0.3890186487
 C         -2.0461408248        1.3351879551       -0.1876155391
 N         -2.7358362920        0.1768641185       -0.0044130789
 C         -1.8269625815       -0.7543204573        0.1438436297
 C         -2.2418430795       -2.1212436409        0.3425808966
 C         -1.5086043662       -3.2179500788        0.4929814166
 N         -0.5706300737       -0.1635821038        0.0500580819
 C          0.7492059598       -0.6443382468        0.1399813473
 O          1.0243836812       -1.7795202407        0.4215756555
 O          1.5759062431        0.3390691691       -0.1255931232
 C          3.0153554919        0.1420780425       -0.0863252778
 C          3.5751928516        1.5161518037       -0.4497160085
 C          3.4493632768       -0.2651168695        1.3204267477
 C          3.4305840225       -0.9029642848       -1.1202466779
 N         -0.7459822697        1.1597818157       -0.1620513206
 H         -4.4293549543        3.7562362064       -0.5631017404
 H         -4.6400159549        1.9494214111       -0.2788835364
 H         -1.9707089067        3.4421113346       -0.5189900888
 H         -3.3229389155       -2.1815956476        0.3521322209
 H         -0.4344824124       -3.2075425454        0.4950967171
 H         -1.9891485410       -4.1727617782        0.6256421724
 H          3.2317899994        2.2569653601        0.2667154598
 H          3.2288599043        1.8086262345       -1.4369417906
 H          4.6606580625        1.4894483980       -0.4448719125
 H          3.0930744383        0.4629754570        2.0459195754
 H          4.5337675087       -0.3072339690        1.3679899567
 H          3.0491718426       -1.2423786836        1.5767144912
 H          3.0563762578       -0.6248714301       -2.1031716350
 H          3.0356910199       -1.8804060397       -0.8567631694
 H          4.5144637602       -0.9623294181       -1.1609438153
