25
 energy: -41.237656170460 gnorm: 0.000155279646 xtb: 6.4.1 (23d549d)
C        -3.98989563230000    1.55440748020000    0.27877167640000
C        -3.69148632360000    0.26154520900000    0.22257591980000
C        -2.35546421500000   -0.31058505170000    0.13203137040000
C        -2.19731670990000   -1.69899793270000    0.12067203820000
C        -0.94662919250000   -2.27023006050000    0.04034328720000
C         0.21595387410000   -1.49568791660000   -0.06003286300000
C         1.48607139190000   -2.20614951030000   -0.18532656080000
C         2.54475942440000   -1.81373157970000   -0.88446681500000
C         0.05215873590000   -0.11047839500000   -0.02940703850000
S         1.39465013260000    1.09691174140000   -0.02688092370000
N         2.50809988260000    0.56544004480000    1.09434462060000
O         2.04498586850000    1.12655127860000   -1.30227211110000
O         0.86636858610000    2.32119799220000    0.49396827510000
C        -1.19646861800000    0.46339043440000    0.06859468080000
H        -5.01117665890000    1.88821480100000    0.34368630600000
H        -3.23920438890000    2.32525310570000    0.26396893860000
H        -4.49201485920000   -0.46799475940000    0.24454568930000
H        -3.06948629750000   -2.33406562990000    0.18269709950000
H        -0.85215382960000   -3.34674191760000    0.03586661040000
H         1.49442784170000   -3.17782484990000    0.29734476760000
H         2.56514988080000   -0.88475394770000   -1.42775418410000
H         3.42188960110000   -2.43677681040000   -0.95134393530000
H         2.92824737430000   -0.32413625890000    0.87504313230000
H         2.16281075440000    0.62512926010000    2.03685828510000
H        -1.23832538000000    1.53903521530000    0.10743370440000
