  82
        -97.86155814
 C         -0.3655292989        1.8351003958       -3.1103004838
 C         -0.9524840868        1.3272169632       -2.0325140348
 C         -1.0549802451        1.9223807625       -0.7081111705
 C         -2.0156547527        1.3970032305        0.1547577546
 C         -2.2296168057        1.8662939602        1.4412372234
 O         -3.1732161025        1.3512314348        2.2839359940
 C         -3.7923631383        0.1219511251        1.9669868677
 C         -2.8357384510       -1.0672355878        2.1087550667
 C         -3.3618714262       -2.3409359912        1.4460925877
 C         -3.2376480768       -2.3080412303       -0.0768954101
 C         -3.6124955761       -3.6447173501       -0.7124485882
 C         -3.6050015667       -3.6055765429       -2.2426256418
 C         -2.2622516061       -3.2275270129       -2.8716066728
 C         -1.1453458053       -4.2185011174       -2.5521324881
 C          0.1699179033       -3.8837402304       -3.2575107044
 C          0.8460385922       -2.6388703662       -2.6937665850
 C         -1.4359500642        2.9327081015        1.9085520768
 C         -1.5483446137        3.5426911606        3.2250660612
 C         -2.5188757917        3.3905349462        4.1195250230
 C         -0.4525052335        3.4362097137        1.0556204484
 C         -0.2374608255        2.9640704820       -0.2295465757
 O          0.7283781593        3.4500744947       -1.0628084510
 C          1.8257900483        4.1602473750       -0.5279092116
 C          2.7381328933        3.3264126745        0.3774517876
 C          3.5977978397        2.3135858588       -0.3813444698
 C          2.8133159742        1.1849317997       -1.0530117156
 C          2.0817755485        0.2451622116       -0.0931254846
 C          2.9814632339       -0.5426628859        0.8605080004
 C          3.9519579139       -1.4804245693        0.1456100083
 C          4.7070646874       -2.3740861508        1.1265599694
 C          5.6878848269       -3.3050336966        0.4178161716
 C          6.4364894886       -4.1969340563        1.4005294136
 H         -0.3618969068        1.2964658294       -4.0438676748
 H          0.1147202540        2.7955391216       -3.1044951867
 H         -1.4511629339        0.3674375328       -2.1180520776
 H         -2.6180184702        0.5888645703       -0.2271036008
 H         -4.2365825940        0.1576164047        0.9657483877
 H         -4.6083924538        0.0345833239        2.6901090813
 H         -2.6657101727       -1.2445423666        3.1724133171
 H         -1.8732696187       -0.8001885364        1.6657087615
 H         -4.4046419670       -2.4985567859        1.7310707866
 H         -2.7859850006       -3.1899683620        1.8212923562
 H         -2.2058359307       -2.0608269200       -0.3328910169
 H         -3.8869027168       -1.5326524718       -0.4897148782
 H         -4.6165069752       -3.9239002576       -0.3822754716
 H         -2.9293060498       -4.4187049057       -0.3588254429
 H         -4.3571823197       -2.8861604127       -2.5773910461
 H         -3.9038311200       -4.5887799208       -2.6148496872
 H         -1.9756110195       -2.2286465790       -2.5431541345
 H         -2.3937407138       -3.1867914665       -3.9561753625
 H         -1.4675918983       -5.2173916094       -2.8573878075
 H         -0.9662768569       -4.2418810103       -1.4758538453
 H         -0.0145710333       -3.7471080184       -4.3255148603
 H          0.8504278997       -4.7317297033       -3.1466750258
 H          0.2457928702       -1.7492080367       -2.8664604351
 H          1.8142399232       -2.4855532116       -3.1655162478
 H          1.0011019960       -2.7482956099       -1.6218799733
 H         -0.7301894786        4.2143940116        3.4626420657
 H         -3.3686737244        2.7582866629        3.9469696172
 H         -2.4838427686        3.9118068455        5.0622406445
 H          0.1555884414        4.2445673192        1.4325121310
 H          1.4811509508        5.0558489938        0.0065100629
 H          2.3822280763        4.4901677721       -1.4104267829
 H          2.1326237307        2.8114248144        1.1242001202
 H          3.3988554296        4.0192460650        0.9041110055
 H          4.3235494080        1.8880723894        0.3147030848
 H          4.1620673301        2.8460059721       -1.1518999544
 H          3.5056698945        0.6011815703       -1.6627644880
 H          2.0742240690        1.6182415866       -1.7271755989
 H          1.5077829282       -0.4614413480       -0.6970274064
 H          1.3618022127        0.8156449331        0.4972574063
 H          2.3404554552       -1.1371381284        1.5175647199
 H          3.5432612001        0.1437682312        1.4968968764
 H          4.6746480053       -0.8974406476       -0.4278751564
 H          3.3967951179       -2.1053563620       -0.5580406488
 H          3.9917518410       -2.9722639070        1.6965814833
 H          5.2532995847       -1.7493136875        1.8376757426
 H          6.4058855377       -2.7079071665       -0.1492883909
 H          5.1417511423       -3.9280546053       -0.2944150508
 H          7.0033214113       -3.5941686413        2.1069900040
 H          7.1284636448       -4.8512959760        0.8752741625
 H          5.7390411638       -4.8148101964        1.9622231206
