  21
        -38.07522095
 C         -2.5574336913       -2.4758931645        0.0000489441
 C         -1.7683630323       -1.2035121767       -0.0000918969
 C         -0.3798678512       -1.2250919994        0.0000464379
 C          0.3241052842       -0.0314220934        0.0001738731
 C          1.8244059078       -0.0218176933        0.0000266119
 F          2.3712497746       -1.2455164459        0.0009435738
 F          2.3299715148        0.6155090042       -1.0748618418
 F          2.3303073518        0.6172758626        1.0736906131
 C         -0.3353406520        1.1902277574        0.0001693720
 C         -1.7220278416        1.2249906162        0.0000536623
 C         -2.4619902974        2.5262825450       -0.0000230259
 C         -2.4191641001        0.0230482356       -0.0000871271
 H         -1.9014265329       -3.3417537988       -0.0043230602
 H         -3.2012550229       -2.5210987110       -0.8770449323
 H         -3.1942942404       -2.5249622511        0.8820482889
 H          0.1512818787       -2.1645378939        0.0000103753
 H          0.2369555058        2.1057467010        0.0002319736
 H         -1.7733657117        3.3664183563        0.0007985289
 H         -3.1006706212        2.5973746213        0.8791308769
 H         -3.0992773232        2.5980010244       -0.8801430881
 H         -3.5000552983        0.0436177643       -0.0001936556
