  44
        -76.31773425
 C         -5.0261100995       -4.0330768222       -0.0054563237
 O         -3.6377058301       -4.2225789720        0.0935264618
 C         -2.8315549561       -3.1181411564        0.0928335582
 C         -3.2806339217       -1.8113191421        0.0089959033
 C         -2.3384541339       -0.7871945883        0.0131863294
 C         -2.4582324345        0.6420111447       -0.0313528810
 C         -3.5554125841        1.4921626587       -0.1306125412
 C         -3.3276406224        2.8568375261       -0.1787091737
 O         -4.3047996633        3.8092256447       -0.2683448987
 C         -5.6439655874        3.3867369341       -0.3083442187
 C         -2.0163262880        3.3575086512       -0.1490518998
 C         -0.9231411415        2.5262394757       -0.0512327960
 C         -1.1468045858        1.1578158999        0.0298707546
 N         -0.2441940825        0.1113956098        0.1015283166
 C          1.1430974073        0.2294786726        0.1807255741
 C          1.7267693854        1.1210324790        1.0802306081
 C          3.0980094170        1.2325035624        1.1532844077
 C          3.9325528579        0.4583665733        0.3418934942
 C          5.3684681725        0.6255070301        0.4791684967
 C          6.3394232237       -0.0054467430       -0.1657106928
 F          6.2289087212       -0.9457841149       -1.0971784125
 F          7.6319637758        0.2358855041        0.0505432955
 C          3.3392784613       -0.4329599513       -0.5557204135
 C          1.9673756848       -0.5428277974       -0.6370109227
 C         -0.9594548390       -1.0733964422        0.0900890607
 C         -0.5169579803       -2.3849377676        0.2051974934
 C         -1.4582235511       -3.3896724277        0.1997288658
 H         -5.4624348067       -5.0307357495        0.0051674195
 H         -5.2986747634       -3.5299319490       -0.9394455288
 H         -5.4162368330       -3.4599521266        0.8426162426
 H         -4.3290549997       -1.5681955144       -0.0516861722
 H         -4.5483352901        1.0748655109       -0.1745868972
 H         -6.2394875528        4.2962911053       -0.3706040410
 H         -5.9200160706        2.8359541226        0.5973311083
 H         -5.8441875128        2.7639287807       -1.1868809851
 H         -1.8898333451        4.4265339960       -0.2109787145
 H          0.0754577810        2.9347957269       -0.0531869914
 H          1.0976108440        1.7071107576        1.7325687100
 H          3.5369458657        1.9230602006        1.8584585550
 H          5.7011417103        1.3571759458        1.2014851483
 H          3.9493062486       -1.0393588026       -1.2046067727
 H          1.5219580405       -1.2167472365       -1.3527051167
 H          0.5309107732       -2.6190892157        0.3106272249
 H         -1.1597021942       -4.4223834316        0.2832526942
