32
 energy: -39.104158712234 gnorm: 0.000028313935 xtb: 6.4.1 (23d549d)
C        -2.86284874440000    2.36240749450000   -0.05972196400000
C        -2.55044193880000    1.15697895740000   -0.51659256350000
C        -1.24339322960000    0.52023268380000   -0.36697864480000
C        -0.08738636460000    1.29723213630000   -0.37914139040000
C         1.18023654480000    0.75802160080000   -0.24701335780000
C         2.36835875150000    1.68184778670000   -0.26108622850000
C         2.68763268060000    2.17532482460000    1.15202100600000
C         1.31011744410000   -0.62865553440000   -0.09753138280000
C         2.61787718600000   -1.26602856660000    0.05741467330000
C         2.92845699340000   -2.47180205230000   -0.39948040660000
C         0.15414558920000   -1.40676871620000   -0.09117525410000
C        -1.11361121270000   -0.86867284010000   -0.22549713890000
C        -2.31155394340000   -1.77355542730000   -0.14380272290000
C        -3.02277983840000   -1.62492626810000    1.20213233570000
H        -3.84098903790000    2.78780330460000   -0.20821714450000
H        -2.16323065500000    2.96385520440000    0.49646621120000
H        -3.30415571100000    0.58056378790000   -1.03760227260000
H        -0.18451513730000    2.36427872040000   -0.52131974580000
H         2.14404947580000    2.54405779540000   -0.89320108030000
H         3.23909263020000    1.17860772560000   -0.68361634740000
H         1.83409706240000    2.70810673700000    1.56545459290000
H         3.54280378620000    2.84765823980000    1.13719200590000
H         2.91436105340000    1.34005104710000    1.81092693720000
H         3.37045722360000   -0.69321818080000    0.58226851400000
H         2.22791128360000   -3.07256834640000   -0.95520769190000
H         3.90567278820000   -2.89894019740000   -0.24992261630000
H         0.25288215530000   -2.47405144080000    0.04754948780000
H        -1.98873776630000   -2.80974826230000   -0.26498604660000
H        -3.01374473550000   -1.54973056440000   -0.95026967280000
H        -2.34173523100000   -1.86874599900000    2.01471756620000
H        -3.88013818190000   -2.29243567310000    1.25580562830000
H        -3.36724294330000   -0.60252370410000    1.34009864930000
