22
 energy: -29.878048775255 gnorm: 0.000041346096 xtb: 6.4.1 (23d549d)
C        -3.88536792290000   -0.88906936470000   -0.17511427740000
C        -3.00290774810000    0.09743323150000   -0.06977233180000
C        -1.55810493110000   -0.04670850890000    0.01655430160000
C        -0.90174123980000   -1.27224441340000    0.16817546300000
N         0.40287082710000   -1.39280358730000    0.22879292680000
C         1.18519825540000   -0.31505483970000    0.13010162880000
C         2.61152701500000   -0.63506520480000    0.17197888750000
C         3.59203000170000   -0.01345069980000   -0.46919108550000
C         0.64267816940000    0.97725904610000    0.03404235970000
C         1.47192020560000    2.22407613500000    0.03370594900000
C        -0.73928303820000    1.08159634000000   -0.02177883090000
H        -4.94153534320000   -0.69033466590000   -0.23793728080000
H        -3.59584255420000   -1.92518448530000   -0.20812849760000
H        -3.35472365720000    1.12273408790000   -0.05568597230000
H        -1.45244067080000   -2.19868621680000    0.25797554470000
H         2.82587646020000   -1.52775272210000    0.74508378730000
H         3.42814381960000    0.83240062200000   -1.11302978940000
H         4.60944436490000   -0.35984903230000   -0.39578785670000
H         2.37535140430000    2.09080330990000    0.62414755490000
H         0.89805176660000    3.05366811760000    0.44323631050000
H         1.76124086050000    2.49063107740000   -0.98294057770000
H        -1.19217291440000    2.06248255930000   -0.09594738870000
