23
 energy: -33.938331441298 gnorm: 0.000085286441 xtb: 6.4.1 (23d549d)
C        -3.81635622480000    0.63939086100000    0.09852482120000
C        -2.69398102280000    1.34341942520000    0.03110955960000
C        -1.36627464200000    0.73781496570000   -0.01020523110000
C        -0.22637737900000    1.54162940490000   -0.07520393030000
C         1.02319220250000    0.93761406340000   -0.11345383670000
C         2.27896932390000    1.77069798560000   -0.18944124680000
O         3.43697679950000    1.10641702920000    0.25045484880000
C         1.08722377270000   -0.44671670900000   -0.08733846290000
C        -0.10041513660000   -1.18047531590000   -0.01803956540000
C        -0.14504127360000   -2.63949574150000    0.01803833200000
C         0.89348235290000   -3.46314795340000   -0.03828656860000
N        -1.28879996910000   -0.58866184970000    0.02197176190000
H        -4.78512809040000    1.10782045920000    0.12694234160000
H        -3.78068477580000   -0.43584394070000    0.12628101990000
H        -2.71362661400000    2.42517768290000    0.00209921920000
H        -0.31612708860000    2.61793231830000   -0.09461302370000
H         2.13036282010000    2.70799641720000    0.36856743690000
H         2.47315330530000    2.03118637230000   -1.23576742400000
H         3.30782263700000    0.83034972730000    1.16496721440000
H         2.04626033330000   -0.93786630730000   -0.12746782380000
H        -1.14999883190000   -3.03176707290000    0.09486023830000
H         1.91044529870000   -3.11839278290000   -0.12034386160000
H         0.76136424410000   -4.53116828710000   -0.00698220790000
