  23
        -50.74450782
 C          3.2335248048       -2.3642061747        0.5749306759
 C          2.1165388510       -2.6512773462       -0.0800704386
 C          0.9145642706       -1.8185226152       -0.1177012867
 C         -0.3209085781       -2.4600524685       -0.0314244514
 C         -1.5026059386       -1.7500168643        0.0067294693
 C         -1.4574251926       -0.3628840642       -0.0654449060
 C         -2.7315395041        0.4300668715        0.0015606557
 F         -3.7871287448       -0.2433441082       -0.4830192377
 F         -3.0518732407        0.7631161186        1.2675889271
 F         -2.6676997474        1.5810619070       -0.6834827541
 C         -0.2465377877        0.2983802099       -0.1814323503
 C          0.9506258324       -0.4148045624       -0.2131646103
 C          2.2171927413        0.2755092397       -0.4265882456
 C          2.5074990322        1.5173817249       -0.0711594675
 F          1.7384910291        2.3634098362        0.5999345869
 F          3.6778825028        2.0949998065       -0.3225325311
 H          4.0667962032       -3.0456856245        0.5870580545
 H          3.3467143822       -1.4606132533        1.1498747034
 H          2.0244309746       -3.6030589412       -0.5883685136
 H         -0.3465513794       -3.5379093755        0.0265437266
 H         -2.4506439141       -2.2590559376        0.0828733021
 H         -0.2396885295        1.3731040583       -0.2695191066
 H          3.0007268709       -0.2733247974       -0.9278057194
  23
        -50.74444226
 C          2.5410036658       -3.6023066144        0.3982118526
 C          2.3247482176       -2.4073045140       -0.1340403908
 C          1.0536918051       -1.6853352735       -0.0490444700
 C         -0.1465210689       -2.3878109767       -0.1277445662
 C         -1.3646640195       -1.7390305114       -0.0980839508
 C         -1.3896879600       -0.3543849741        0.0044345507
 C         -2.7003833073        0.3761204774        0.0711427331
 F         -3.7168163236       -0.3230962513       -0.4547918553
 F         -3.0558505476        0.6527109848        1.3431858409
 F         -2.6736281347        1.5535813396       -0.5705988687
 C         -0.2110064439        0.3691959911        0.0929475224
 C          1.0192120515       -0.2822924152        0.0681951833
 C          2.2659090116        0.4605092192        0.2224465571
 C          2.4773912015        1.7265944901       -0.1046005627
 F          1.6251500447        2.5684107712       -0.6687162616
 F          3.6413550149        2.3403412453        0.0786658919
 H          3.4899158554       -4.1002608128        0.2991535791
 H          1.7887570688       -4.1174719328        0.9716625564
 H          3.1160307763       -1.9106955239       -0.6793058995
 H         -0.1190226059       -3.4608312265       -0.2357058670
 H         -2.2866852565       -2.2951212841       -0.1643744103
 H         -0.2590884227        1.4416921849        0.1937056593
 H          3.1087043976       -0.0615468176        0.6489532605
  23
        -50.74402839
 C          2.8230664811       -2.6847103165        0.6244612224
 C          2.3461755099       -1.7153219587       -0.1438384251
 C          0.9899126056       -1.1781856432       -0.0634217154
 C         -0.0768831605       -2.0193451656        0.2543165954
 C         -1.3801384415       -1.5669951921        0.2582761616
 C         -1.6395301085       -0.2465938406       -0.0873916120
 C         -3.0443380596        0.2830119827       -0.0988354943
 F         -3.9720809039       -0.6823936677       -0.1476966513
 F         -3.3182070136        1.0136759770        1.0007665558
 F         -3.2790492403        1.0921814182       -1.1464097800
 C         -0.5991506520        0.6118646003       -0.4028105376
 C          0.7187071944        0.1659222866       -0.3741547139
 C          1.7657166761        1.1451268108       -0.6682258288
 C          2.9020954775        1.2888696828       -0.0063595805
 F          3.3108261474        0.5918147737        1.0436097344
 F          3.8095785605        2.2147795886       -0.2972158579
 H          3.8287917567       -3.0488957422        0.5094240060
 H          2.2418923551       -3.1277184468        1.4152670054
 H          2.9804478226       -1.2652608877       -0.8971150710
 H          0.1248530578       -3.0547806048        0.4791186841
 H         -2.1928577266       -2.2320548496        0.5051267114
 H         -0.8119127329        1.6385729158       -0.6608298898
 H          1.5713531954        1.8600804203       -1.4538847601
  23
        -50.74257245
 C          3.1374508539       -1.8655093385       -0.7281888548
 C          2.2453654678       -1.9097684276        0.2493849707
 C          0.9278074785       -1.2681180501        0.1998920650
 C         -0.1805605903       -2.0280564279        0.5710220027
 C         -1.4669552732       -1.5415112967        0.4516041964
 C         -1.6582383474       -0.2630361511       -0.0541850183
 C         -3.0358105035        0.3118444900       -0.2162363686
 F         -4.0118271050       -0.5831633176       -0.0188367080
 F         -3.2676699154        1.3224372918        0.6444926659
 F         -3.2303749985        0.8245456924       -1.4452981297
 C         -0.5710477229        0.5249875084       -0.3983589175
 C          0.7268193044        0.0444570129       -0.2558285788
 C          1.8214966874        0.9710905871       -0.5587007820
 C          2.8886959440        1.1616720322        0.1972510967
 F          3.1797656893        0.5365691775        1.3289700348
 F          3.8431587081        2.0434367500       -0.0774674625
 H          4.0719887253       -2.3946991559       -0.6618618727
 H          2.9631172899       -1.3112032186       -1.6358379414
 H          2.4332262171       -2.5090298363        1.1303022745
 H         -0.0242660915       -3.0302698215        0.9406590660
 H         -2.3135062642       -2.1467502636        0.7353515270
 H         -0.7341057661        1.5275531247       -0.7650288589
 H          1.7124464299        1.6113998627       -1.4208940305
