  38
        -52.54084091
 C          5.0530999422       -2.5364565443       -0.3514376028
 C          4.4841382928       -1.5407030436        0.3174087748
 C          3.2399288960       -0.8612203687       -0.0213348909
 C          2.4289426649       -1.2378170952       -1.0927889236
 C          1.2493422439       -0.5696380779       -1.3425084133
 C          0.8463919767        0.5071122497       -0.5591077428
 O         -0.3474278279        1.1190984897       -0.8853878356
 C         -1.3828864822        1.0054491240        0.0702584073
 C         -1.9499778477       -0.4300556993        0.1159774725
 C         -2.7011065834       -0.7871880293       -1.1730058056
 C         -4.0790547886       -0.1298558278       -1.2168603100
 C         -4.8323356832       -0.4624965070        0.0679100332
 C         -3.9908945914       -0.0299531358        1.2670382651
 O         -2.7232004491       -0.6536704978        1.2781980250
 C          1.6668573488        0.9392335400        0.4940516992
 C          1.3957113031        2.1228604433        1.3116853243
 C          0.8108503620        3.2325129631        0.8810525925
 C          2.8312323534        0.2217269357        0.7523455012
 H          5.9795004453       -2.9741411774       -0.0211639705
 H          4.6296337476       -2.9544624044       -1.2483804760
 H          4.9710832376       -1.1650946479        1.2094673388
 H          2.7081923511       -2.0681627812       -1.7216508141
 H          0.6101692015       -0.8729354587       -2.1582477713
 H         -2.1398388409        1.7237909797       -0.2502502802
 H         -1.0362725079        1.2747259543        1.0753426756
 H         -1.0935552052       -1.1076924357        0.2349454734
 H         -2.8221358951       -1.8716192232       -1.2162500938
 H         -2.0963181495       -0.4696992156       -2.0231543757
 H         -4.6319926393       -0.4890238708       -2.0868061029
 H         -3.9774922407        0.9533043830       -1.3114646511
 H         -5.0020305298       -1.5395336249        0.1234288529
 H         -5.7977622966        0.0440614811        0.0977681170
 H         -4.4607831426       -0.3350920727        2.2050532817
 H         -3.8819675184        1.0642274459        1.2714717637
 H          1.7779016235        2.0737520477        2.3248447884
 H          0.4510244273        3.3291654402       -0.1289960864
 H          0.6779823203        4.0853346662        1.5255135568
 H          3.4564837540        0.5424933098        1.5749972235
