  27
        -43.60118010
 C         -4.3586630922       -0.7481257136        0.2758405308
 C         -3.5202694210        0.1589097940       -0.2092757882
 C         -2.0680483570        0.1068295806       -0.0786122622
 C         -1.3758062454       -1.0887806303       -0.0188313247
 C          0.0200319967       -1.1326553466        0.0789973650
 C          0.7358659444       -2.4018250669        0.1269120714
 C          0.2789541778       -3.5494349031       -0.3602770890
 C          0.6760292982        0.1076693726        0.1021766517
 C          2.1590495286        0.2503052065        0.1774119678
 O          2.9243508468       -0.5297564139        0.6931644342
 O          2.5590967966        1.3870087844       -0.3971143567
 C          3.9520638484        1.6477058261       -0.3485453846
 N          0.0275453291        1.2666909012        0.0554044558
 C         -1.2925662220        1.2932561029       -0.0222419259
 N         -1.8567427061        2.5355196329       -0.0789361902
 H         -5.4228993935       -0.6638379118        0.1380114239
 H         -4.0168519687       -1.5987776817        0.8410222188
 H         -3.9101045245        1.0116524026       -0.7513449017
 H         -1.9286274632       -2.0149510795       -0.0529084062
 H          1.7156828654       -2.3632237311        0.5779032431
 H         -0.6736838731       -3.6372092389       -0.8567204583
 H          0.8605072577       -4.4527654453       -0.2946328425
 H          4.1045146360        2.5872168691       -0.8733840016
 H          4.5080152837        0.8418378980       -0.8337150752
 H          4.2887732131        1.7273862117        0.6875790394
 H         -1.2208621838        3.2921598550        0.1131322901
 H         -2.8067198857        2.6519198039        0.2269361133
