23
 energy: -38.068041523139 gnorm: 0.000094455418 xtb: 6.5.0 (unknown)
C           -3.58090245240000        2.93602824200000        0.05882760250000
C           -2.27511017860000        2.71294738140000       -0.02330122780000
C           -1.60778408810000        1.41545168520000       -0.01806456410000
C           -2.30127053620000        0.20540713880000       -0.00716365080000
C           -1.63025828550000       -1.00783132620000        0.00113704310000
C           -2.39308751430000       -2.29796580750000       -0.01140581570000
C           -0.24245866850000       -1.02007689440000       -0.00219628110000
C            0.48071716180000        0.17216490070000       -0.01484797630000
C            1.93505228090000        0.22554884390000       -0.01797161710000
C            2.79956605020000       -0.77729011620000        0.00542678830000
F            2.54627210240000       -2.08084108300000        0.03773091460000
F            4.12089757910000       -0.59847989680000       -0.00050278250000
C           -0.21615139410000        1.37876094550000       -0.02440553460000
H           -3.97837187500000        3.93638455110000        0.04895379730000
H           -4.30571933100000        2.14453572380000        0.14141512760000
H           -1.60422895270000        3.56051025120000       -0.09651051040000
H           -3.38032086150000        0.20519436780000       -0.00852713380000
H           -3.36340704520000       -2.18127820070000        0.46528992800000
H           -1.83850294830000       -3.08075475290000        0.50024620860000
H           -2.55843604740000       -2.62014074220000       -1.03995021000000
H            0.26935123030000       -1.96854481090000        0.00414066730000
H            2.37994813050000        1.21018700560000       -0.04114033340000
H            0.33627425250000        2.30784369200000       -0.03255284620000
