  24
        -40.18062091
 C         -4.7155675425       -2.0398023780        0.1009807208
 C         -4.5757645786       -0.7268195994       -0.0334885146
 C         -3.3249084090        0.0244359396       -0.0270184145
 C         -3.3767638003        1.4198951596       -0.0309647166
 C         -2.2141640068        2.1688488322       -0.0200866614
 C         -0.9802708515        1.5491621492       -0.0106331126
 C         -0.8922155477        0.1533830411       -0.0129344780
 C          0.3700804785       -0.5597071358       -0.0090110881
 C          1.5993974281       -0.0214034447       -0.0012161648
 C          2.7941665067       -0.8212312709        0.0020502480
 C          4.0199764877       -0.3100326506        0.0102903075
 F          4.3215267573        0.9849593694        0.0166015734
 F          5.1394669103       -1.0281259849        0.0133385616
 C         -2.0748333380       -0.5868918935       -0.0208924420
 H         -5.6873854256       -2.5025552965        0.0872003599
 H         -3.8810221258       -2.7063645393        0.2355014157
 H         -5.4628712537       -0.1160657587       -0.1510400248
 H         -4.3364561625        1.9166458033       -0.0386716119
 H         -2.2717076403        3.2476511951       -0.0206415744
 H         -0.0848520018        2.1500771281       -0.0038974588
 H          0.2858053805       -1.6400652575       -0.0130106443
 H          1.7461857360        1.0482825210        0.0030268230
 H          2.7054399697       -1.8966270252       -0.0024504733
 H         -2.0093230762       -1.6645788916       -0.0296815583
