  23
        -43.26310640
 C         -4.8172216703        1.9493950575        0.0857856418
 C         -4.5080856989        0.6646879641       -0.0402539577
 C         -3.1690269706        0.0839168846       -0.0272891524
 C         -3.0585843746       -1.3206540553       -0.0083305902
 C         -1.8446157754       -1.9715552695        0.0110550102
 C         -0.7054213067       -1.1820973821        0.0064815223
 O          0.5834896659       -1.5849198752        0.0201292393
 C          1.3473695669       -0.4524526291        0.0037178196
 C          2.7723639807       -0.6455380795        0.0158974346
 C          3.6819098322        0.3206600357        0.0039792156
 F          3.4445164041        1.6259860775       -0.0214986220
 F          4.9919680053        0.1063977764        0.0162964921
 C          0.5723222483        0.6737191685       -0.0211915019
 C         -0.7798616528        0.2273347571       -0.0192503159
 C         -2.0186852069        0.8602088577       -0.0364955743
 H         -5.8408036384        2.2818270410        0.0668627623
 H         -4.0760036613        2.7186592974        0.2174490575
 H         -5.3087419326       -0.0557696271       -0.1549388380
 H         -3.9655807858       -1.9074302175       -0.0051132853
 H         -1.7760700433       -3.0473701440        0.0275554225
 H          3.1218758259       -1.6657175130        0.0368917077
 H          0.9178668622        1.6864077841       -0.0377990123
 H         -2.0694100954        1.9364695261       -0.0638013423
  23
        -43.26230161
 C         -5.2338009580        1.4535309450       -0.0668238435
 C         -4.6303853024        0.2755932559        0.0351756813
 C         -3.1921058372        0.0273055906        0.0227451907
 C         -2.7533631112       -1.3105632002       -0.0318077699
 C         -1.4200377259       -1.6562396748       -0.0536199947
 C         -0.4995224525       -0.6209797132       -0.0141390034
 O          0.8478435645       -0.7101396659       -0.0219239779
 C          1.3234471851        0.5654785560        0.0341610919
 C          2.7416766769        0.7977778193        0.0394770720
 C          3.6749707693       -0.1466598055       -0.0111558629
 F          3.4843033524       -1.4528752631       -0.0746797176
 F          4.9790018683        0.1138666895       -0.0041674522
 C          0.3063684791        1.4788429368        0.0790072999
 C         -0.9043318035        0.7302170813        0.0478913888
 C         -2.2576018459        1.0524369370        0.0664141694
 H         -6.3070121789        1.5343941354       -0.0503308836
 H         -4.6949267750        2.3788369003       -0.1760217261
 H         -5.2388378051       -0.6157435208        0.1270863286
 H         -3.4964918787       -2.0940246150       -0.0613145647
 H         -1.0976432483       -2.6839015659       -0.0974247145
 H          3.0681329054        1.8234941751        0.0881682959
 H          0.4094054130        2.5434595716        0.1268276272
 H         -2.5619870531        2.0850358330        0.1216036922
