47
 energy: -56.030086639994 gnorm: 0.000050723197 xtb: 6.4.1 (23d549d)
C         1.78617726170000   -3.73018450670000    2.66703757210000
C         2.70283154240000   -3.18728669290000    1.86902162880000
C         2.68555539330000   -1.83390396330000    1.38356200210000
C         1.78614748170000   -0.82363666210000    1.61192316710000
C         2.09888053280000    0.38374992940000    0.96232113410000
C         1.22948133660000    1.60028556070000    1.04190773780000
C         0.34446047830000    1.74678850570000   -0.20359504320000
C        -0.65691700100000    0.60283320700000   -0.33764797380000
C        -1.53127359130000    0.76331389000000   -1.57848630380000
C        -2.46856337340000   -0.42130863100000   -1.81628936010000
C        -3.49117119410000   -0.67202516570000   -0.70508449820000
C        -4.40587749560000    0.51034211800000   -0.38028854350000
C        -5.27925576420000    0.93842389070000   -1.55750201050000
C        -6.23226693770000    2.08430438990000   -1.21268146810000
C        -7.35451004750000    1.67388075280000   -0.26621076830000
C         3.25775999680000    0.29935487730000    0.21767536170000
C         3.87781621690000    1.32950331840000   -0.56799909270000
C         4.96243157050000    1.16590357390000   -1.32147942150000
S         3.95867654530000   -1.28875112090000    0.33463383900000
H         1.86348642450000   -4.75231367930000    2.99274240040000
H         0.93339943480000   -3.17693658100000    3.02018629700000
H         3.54489058520000   -3.78036611820000    1.53601206500000
H         0.91811280300000   -0.94111731410000    2.23583616900000
H         1.84836316240000    2.49397781420000    1.14974141670000
H         0.59309895940000    1.52435857440000    1.92598424500000
H         0.97760446880000    1.77871207320000   -1.09322738510000
H        -0.19620032200000    2.69463762500000   -0.14293199630000
H        -1.28405777640000    0.57516152720000    0.55531726150000
H        -0.11759618880000   -0.34529726360000   -0.39831116910000
H        -0.88210604330000    0.86422788580000   -2.45254565520000
H        -2.11076462980000    1.68488142190000   -1.49896021950000
H        -1.86521183910000   -1.32593275440000   -1.92961244100000
H        -2.99495237150000   -0.26472657910000   -2.75990500690000
H        -2.96364899130000   -0.96401520600000    0.20538913190000
H        -4.11174389720000   -1.52113217010000   -1.00370039880000
H        -3.80880319380000    1.36092649830000   -0.04650258890000
H        -5.04651453980000    0.21506431600000    0.45309317430000
H        -5.85953820920000    0.08106030970000   -1.90721114930000
H        -4.63787808340000    1.26246548020000   -2.37917285000000
H        -6.67631156420000    2.45770855800000   -2.13884485270000
H        -5.66324721050000    2.90392926720000   -0.76721051900000
H        -7.91661079230000    0.84061803100000   -0.68270523240000
H        -8.03915639750000    2.50472961380000   -0.11024975560000
H        -6.96229911740000    1.37424270710000    0.70210704760000
H         3.39757987160000    2.29797388980000   -0.51815602300000
H         5.45755002110000    0.21162183010000   -1.39477145240000
H         5.38559374690000    1.97705776220000   -1.88698555660000
