  20
        -43.32646721
 C          2.8215523437        2.3207140517       -0.2687222729
 C          2.5325254773        1.0901480934        0.1350506745
 C          1.2318311934        0.4271223924        0.0628730299
 C          1.1938114662       -0.9708489094        0.0783148414
 F          2.3408045505       -1.6601256711        0.1530538615
 C         -0.0000198439       -1.6725451032        0.0003525196
 F         -0.0000468790       -3.0112624952        0.0006184103
 C         -1.1938289974       -0.9708443516       -0.0778828038
 F         -2.3408336555       -1.6601331347       -0.1523508066
 C         -1.2318248799        0.4271368819       -0.0629924490
 C         -2.5325230017        1.0901166357       -0.1354024716
 C         -2.8215034414        2.3209998061        0.2674434390
 C          0.0000152359        1.0836472975       -0.0001899722
 F          0.0000504996        2.4258420209       -0.0004265680
 H          3.8236303267        2.7024182101       -0.1760910704
 H          2.0986462547        2.9843226263       -0.7078281633
 H          3.3188584815        0.4630680321        0.5341294559
 H         -3.3189284087        0.4627211628       -0.5338419026
 H         -2.0985339384        2.9850057545        0.7058389691
 H         -3.8236160174        2.7025868292        0.1746938685
