  24
        -37.06935487
 C          4.2843024317        0.6067735577        0.3959627268
 C          3.2948273718       -0.2749602377        0.4860175507
 C          1.8815797020       -0.0619234101        0.2028168777
 C          0.9943784299       -1.1193018649        0.4090023698
 C         -0.3724858102       -1.0467089425        0.1627911907
 C         -1.1578607962       -2.2721568499        0.3386381853
 C         -2.1215341393       -2.6861930752       -0.4714082325
 C         -0.8949997003        0.1809309729       -0.2582491459
 S         -2.6352935103        0.4855362323       -0.5001279847
 C         -3.2479381628        0.1399837889        1.1776488270
 C         -0.0432207460        1.2515049538       -0.4809082485
 C          1.3141174411        1.1247761472       -0.2691075056
 F          2.0744552612        2.2112747915       -0.5169370334
 H          5.2946012843        0.3214671028        0.6367054121
 H          4.1430993681        1.6263513915        0.0875903661
 H          3.5225319190       -1.2842374309        0.8084387556
 H          1.3970243259       -2.0609557335        0.7561203689
 H         -0.8440622993       -2.8959899697        1.1677252312
 H         -2.4354336849       -2.1126895983       -1.3265813055
 H         -2.6294776228       -3.6213427167       -0.3064955210
 H         -4.3097520996        0.3618841673        1.1633489316
 H         -2.7381303102        0.7900942559        1.8822058903
 H         -3.0837292464       -0.9045279566        1.4235509960
 H         -0.4409458465        2.1959152702       -0.8178603166
