  32
        -39.10158613
 C         -3.5340192251        1.4217779434       -0.3832085821
 C         -2.3687375333        1.6635550708        0.1993038982
 C         -1.1655576898        0.8285587119        0.1355860467
 C          0.0455403210        1.4867416831       -0.0806624607
 C          1.2565327351        0.8270001552       -0.1787007008
 C          2.5067231463        1.6282582729       -0.4234805499
 C          3.1315792807        2.0784153961        0.8991083624
 C          1.2744315477       -0.5660078130       -0.0230544969
 C          2.5186835180       -1.3322395424       -0.0937493220
 C          2.6154223957       -2.5719000322       -0.5552697919
 C          0.0710335241       -1.2180035760        0.2272975791
 C         -1.1470641905       -0.5598573612        0.3051555508
 C         -2.3738699702       -1.3765737850        0.6069006128
 C         -2.8130989687       -2.1949618719       -0.6087714107
 H         -4.3558688327        2.1138849205       -0.3021264887
 H         -3.7112113153        0.5454875913       -0.9815802156
 H         -2.2358938112        2.5935278493        0.7413456979
 H          0.0291914044        2.5623522494       -0.1994199961
 H          2.2555396350        2.5126327086       -1.0134427707
 H          3.2288873645        1.0431408544       -0.9945847652
 H          2.4282350577        2.6929927542        1.4566958139
 H          4.0324065294        2.6604112533        0.7163936850
 H          3.3915985513        1.2207686452        1.5155859220
 H          3.4110672812       -0.8313012840        0.2561630117
 H          1.7653444148       -3.1071843411       -0.9442122108
 H          3.5562901801       -3.0953610208       -0.5777815543
 H          0.0898445366       -2.2853279009        0.3960936989
 H         -3.1888446002       -0.7284917084        0.9299739048
 H         -2.1452917255       -2.0649955091        1.4252414870
 H         -3.0192470121       -1.5467655259       -1.4575834747
 H         -3.7119257196       -2.7634126064       -0.3794750147
 H         -2.0298454042       -2.8899761710       -0.9025440235
