  22
        -34.71180521
 C         -4.0501694723       -0.0134598749        0.0053312205
 C         -3.0384524280       -0.8718919766       -0.0002843706
 C         -1.6348660823       -0.4753575970       -0.0017256722
 C         -0.6207675597       -1.4628969685       -0.0036769964
 C          0.7151634454       -1.1186715425       -0.0026098678
 C          1.7521635465       -2.1336524419       -0.0024544926
 C          3.0555884449       -1.8762250160        0.0071549096
 C          0.9970287685        0.2683145616       -0.0010685084
 N          2.1312920454        0.9451556040       -0.0004587923
 C          1.7871649209        2.2459417065       -0.0000833431
 C          0.4210101435        2.4016519682       -0.0002081879
 N         -0.0872091777        1.1469082948       -0.0007728978
 N         -1.3616850070        0.8099492085       -0.0005231539
 H         -5.0746688224       -0.3429609851        0.0070066460
 H         -3.8687447531        1.0472403239        0.0075856854
 H         -3.2144779734       -1.9393139215       -0.0028995760
 H         -0.9069212762       -2.5039710785       -0.0053912134
 H          1.3874836323       -3.1537877582       -0.0097950560
 H          3.4152190960       -0.8617039782        0.0143392050
 H          3.7832510023       -2.6700985153        0.0084433577
 H          2.5411652282        3.0084348880        0.0003355820
 H         -0.2031230262        3.2696563158        0.0002971468
