  51
        -58.13503574
 C         -9.3103280292        0.3714145817        0.4658958345
 C         -7.8978215180        0.9435575517        0.4634831776
 C         -7.2915133651        0.9362522877       -0.9382504959
 C         -5.9160775247        1.5999040652       -1.0115018261
 C         -4.8233070979        0.8162919099       -0.2875612759
 C         -3.4499905157        1.4581821895       -0.4700333612
 C         -2.3513687367        0.6803577279        0.2502026072
 C         -0.9798092253        1.3282170999        0.0749616930
 C          0.1163639418        0.5337455887        0.7813555969
 C          1.4806196903        1.2247954296        0.7659379727
 C          2.0899498482        1.4217070521       -0.6225497501
 C          2.4434343865        0.1079826390       -1.3316465612
 C          3.4430098948       -0.6982409786       -0.5602690142
 C          3.0872693552       -1.8257276510        0.2304251216
 C          4.1309284331       -2.4073939099        0.8702093311
 C          4.1306368016       -3.5906749220        1.7712060943
 S          5.6104866990       -1.5703498684        0.5120983192
 C          4.7784505686       -0.4347239440       -0.5107037613
 C          5.5495006143        0.6502763838       -1.1772552266
 H         -9.7269563896        0.3811520152        1.4705509588
 H         -9.3059083809       -0.6554463247        0.1063296969
 H         -9.9610334460        0.9562880872       -0.1809393275
 H         -7.2743696198        0.3554580437        1.1387592563
 H         -7.9216874879        1.9692624110        0.8390884930
 H         -7.9700551212        1.4650161521       -1.6127329040
 H         -7.2137858991       -0.0946393613       -1.2921277239
 H         -5.9785731943        2.6060431218       -0.5898300505
 H         -5.6333262882        1.7015409349       -2.0625576099
 H         -4.7976211900       -0.2057999567       -0.6733846051
 H         -5.0502056929        0.7636405338        0.7785822058
 H         -3.4770639959        2.4814742121       -0.0876226496
 H         -3.2146494952        1.5117172535       -1.5359485640
 H         -2.3202973464       -0.3412359303       -0.1369583021
 H         -2.5899949968        0.6210886674        1.3149726627
 H         -1.0065571548        2.3436688240        0.4778757765
 H         -0.7585691413        1.3995625173       -0.9915187059
 H          0.1944583432       -0.4545305513        0.3260671448
 H         -0.1760025570        0.3858072165        1.8243347374
 H          2.1759684680        0.6377851954        1.3707275395
 H          1.3788025326        2.2050413313        1.2389372150
 H          3.0012699456        2.0135972769       -0.5139752204
 H          1.4024663196        1.9902960925       -1.2509796575
 H          2.8471656063        0.3454917352       -2.3196709036
 H          1.5410147738       -0.4864288096       -1.4774512277
 H          2.0773991144       -2.1888618247        0.3114923732
 H          3.1198644873       -3.9797308426        1.8703897891
 H          4.5028784380       -3.3230797947        2.7601098945
 H          4.7731585423       -4.3770564843        1.3753050201
 H          6.5561344866        0.3110738790       -1.4134367984
 H          5.6336900563        1.5224376722       -0.5265450786
 H          5.0552087313        0.9581626340       -2.0966776012
