  28
        -47.55972739
 C          2.2432641805       -3.5037257591        0.0886304938
 C          1.0514690888       -2.9253025590       -0.0097928514
 C          0.7325353602       -1.5037300767       -0.0335316804
 C         -0.6035082901       -1.1252153455       -0.0130558004
 C         -1.0158981936        0.2045281480       -0.0256718076
 C         -2.4464226788        0.5252311622        0.0235114726
 O         -2.9203404485        1.6475933099        0.0425266107
 O         -3.2296881861       -0.5651515756        0.0544117539
 C         -4.6255975180       -0.3212522021        0.1065781664
 C         -0.0485860735        1.2373003163       -0.0658933724
 N         -0.4181798543        2.5327595467       -0.0700937504
 C          1.3220763289        0.8806877931       -0.1063650648
 C          2.3412499550        1.9320033821       -0.2156736406
 C          3.4869964367        1.9593679257        0.4485080834
 C          1.6691909535       -0.4595935615       -0.0847836262
 F          2.9813899776       -0.7598832756       -0.1628919950
 H          2.3290516939       -4.5773809719        0.0999204595
 H          3.1656124563       -2.9577731035        0.1611863666
 H          0.1726533991       -3.5566611480       -0.0698321198
 H         -1.3620809217       -1.8912336506        0.0202718350
 H         -5.1032824916       -1.2976293182        0.1140189937
 H         -4.9444783895        0.2557768682       -0.7642098910
 H         -4.8813257445        0.2380052403        1.0092913469
 H         -1.4062823280        2.7339506900        0.0059274331
 H          0.2664661510        3.2572466269        0.0391036709
 H          2.1059417428        2.7284833185       -0.9128785628
 H          3.7567530628        1.1963110611        1.1579034810
 H          4.2004450213        2.7527885253        0.3048413961
