26
 energy: -40.962341386617 gnorm: 0.000113253307 xtb: 6.4.1 (23d549d)
C        -1.54430048230000   -3.77371434970000   -0.05637906580000
C        -2.12586702080000   -2.58810259650000    0.07652033350000
C        -1.46045303360000   -1.29064921800000    0.02197405260000
C        -2.23615398980000   -0.13178196470000    0.01165641630000
C        -1.67441641850000    1.14261857560000   -0.05704100760000
C        -2.47153943610000    2.36459223190000   -0.08098066970000
C        -3.77967165750000    2.46118586840000    0.12191395600000
C        -0.28221723720000    1.24481842290000   -0.10927705110000
C         0.48586118910000    0.10113332060000   -0.08417709010000
S         2.27265419750000    0.25379107540000   -0.09208685040000
C         2.67504068000000    0.39209068150000    1.67721505340000
O         2.84776511600000   -0.96791153770000   -0.58680590890000
O         2.64051683110000    1.48749704150000   -0.73231373150000
C        -0.07051631720000   -1.15649697490000   -0.02006075680000
H        -2.11633175890000   -4.68425097330000   -0.00789462440000
H        -0.48794616190000   -3.88800464250000   -0.22750140890000
H        -3.19709036350000   -2.53964393630000    0.22911118020000
H        -3.31067676430000   -0.23328311220000    0.03859998100000
H        -1.90104739980000    3.26367005540000   -0.27652397320000
H        -4.40364443680000    1.61028027220000    0.33512368410000
H        -4.28046923210000    3.41317358060000    0.08680835930000
H         0.21052852420000    2.20209318260000   -0.18250097030000
H         2.33776100830000   -0.51092751270000    2.16876783350000
H         2.17296517920000    1.26726904910000    2.06809095760000
H         3.74913186610000    0.49684200060000    1.76525231160000
H         0.58848190860000   -2.00883497800000   -0.02001202330000
