  20
        -32.77399851
 C         -3.1656805367        1.3071596662       -0.4559675044
 C         -1.9646281797        0.4551711967       -0.2014384116
 C         -0.6751819902        0.9684891113       -0.3013637350
 C          0.4130686434        0.1433888357       -0.0409432784
 C          1.7731016120        0.7596252908       -0.1489783028
 O          2.0849343231        1.4998603766       -1.0375363668
 O          2.6345011489        0.4677938955        0.8446086380
 C          0.1868347824       -1.2012367427        0.2781338054
 C          1.2816063355       -2.1996735619        0.5135457702
 C         -1.1449635753       -1.6036297000        0.3344206325
 N         -2.1777462214       -0.8139027378        0.1193810748
 H         -3.1231699550        1.7275677396       -1.4588916118
 H         -3.2005640112        2.1321612398        0.2535138963
 H         -4.0646479249        0.7070819096       -0.3534866932
 H         -0.5050944359        1.9983893583       -0.5750527171
 H          2.2482462939       -0.1205247428        1.5065440821
 H          2.1890773768       -1.9376072249       -0.0262004632
 H          0.9564482822       -3.1830217456        0.1799279737
 H          1.5142045672       -2.2812406007        1.5776093792
 H         -1.3907564859       -2.6320981957        0.5687554651
