  45
        -51.80459564
 C         -6.0843893869        3.4634050864       -1.5592741336
 C         -4.6506952227        3.5145282716       -2.0738188794
 C         -3.6913752983        4.2231314438       -1.1165489975
 C         -3.5447029797        3.5644145833        0.2570781286
 C         -3.0603657747        2.1140461611        0.2311429971
 C         -1.6750032290        1.9464574950       -0.3891399638
 C         -1.1740724539        0.5094390140       -0.2577956088
 C          0.1690080708        0.2700869493       -0.9498237011
 C          1.3620368397        0.9404870730       -0.2679916322
 C          1.7606340598        0.2742824148        1.0553718474
 C          2.2486585898       -1.1257958903        0.8446385483
 C          3.4941633968       -1.4052218820        0.2161162049
 C          3.7672832524       -2.7261438132        0.0877595534
 C          4.9616147416       -3.3789385152       -0.5116882300
 S          2.4779357291       -3.6828565201        0.7511261671
 C          1.5809518900       -2.2592926854        1.1956392689
 C          0.2599312977       -2.4112577179        1.8687787698
 H         -6.7425027831        3.0426889606       -2.3165629047
 H         -6.4372683130        4.4636860612       -1.3165127427
 H         -6.1581658300        2.8464081643       -0.6675088816
 H         -4.6367846958        4.0511110962       -3.0260816918
 H         -4.2977111717        2.5006254041       -2.2687406850
 H         -4.0445704944        5.2465716642       -0.9641155607
 H         -2.7096117668        4.2876324804       -1.5900094459
 H         -4.5042460724        3.6019534330        0.7765414758
 H         -2.8374768658        4.1584062664        0.8423914667
 H         -3.7771779115        1.4928454342       -0.3087779222
 H         -3.0291672674        1.7486505243        1.2615224825
 H         -0.9820666453        2.6288350384        0.1068086835
 H         -1.7084558233        2.2133780315       -1.4468929564
 H         -1.9158183949       -0.1581831591       -0.7048138271
 H         -1.0991861115        0.2506374875        0.7996734000
 H          0.0997743671        0.6381979005       -1.9766222387
 H          0.3601822307       -0.8044054291       -0.9998569863
 H          1.1401976448        1.9927565835       -0.0836874317
 H          2.2164305485        0.8984811706       -0.9472702740
 H          0.9144482853        0.2771587070        1.7419450284
 H          2.5640961645        0.8607924283        1.5098344318
 H          4.1632645268       -0.6327483329       -0.1219855401
 H          5.6580363863       -2.6223762192       -0.8659285495
 H          4.6745548560       -4.0129180503       -1.3505932790
 H          5.4672837360       -4.0065084025        0.2221099794
 H          0.1348674107       -3.4328056976        2.2196236903
 H         -0.5556326046       -2.1837612213        1.1811511476
 H          0.1830841597       -1.7390199712        2.7228045463
