  20
        -32.77364528
 C         -3.1804615058        1.3548215949       -0.0871586112
 C         -1.9671968298        0.4844921130       -0.0324144920
 C         -0.6813858575        1.0111796021       -0.0190960750
 C          0.4130497888        0.1516742402        0.0188948286
 C          1.7702516157        0.7832097893        0.0134432266
 O          2.0430032264        1.7487571086        0.6677143980
 O          2.6779072785        0.2258149669       -0.8112137862
 C          0.1929593505       -1.2281223800        0.0835866807
 C          1.2886592745       -2.2467883946        0.1954944760
 C         -1.1392971792       -1.6381001842        0.0776170388
 N         -2.1732499143       -0.8274352661        0.0090572068
 H         -2.9066577236        2.4047848057       -0.1289517614
 H         -3.7972987679        1.1770383946        0.7914328145
 H         -3.7768284184        1.0993812202       -0.9607833620
 H         -0.5117153714        2.0765666112       -0.0405360626
 H          2.3202760201       -0.5290746312       -1.2967207040
 H          2.1728063200       -1.8367588395        0.6788122647
 H          1.5687515601       -2.6292054607       -0.7884891445
 H          0.9399362679       -3.0945291137        0.7817787650
 H         -1.3811145208       -2.6925342899        0.1319100381
