  35
        -60.33339903
 C         -5.0516007948        0.8590316234       -1.2610352788
 C         -4.8082306336        0.0338131883        0.0010860078
 C         -5.6827626208       -1.2199678910        0.0024517880
 O         -3.4531605378       -0.4901074103        0.0023223697
 C         -2.4070479351        0.3314061131        0.0011420012
 N         -1.2286862667       -0.4014828865        0.0000151016
 C         -1.1253730445       -1.7856189436       -0.0021025382
 C          0.1725194160       -2.1598507259       -0.0043739542
 C          0.0565118412        0.1202591151       -0.0008308335
 C          0.9612929346       -0.9641974243       -0.0034275417
 C          2.3305240596       -0.7375338216       -0.0046146910
 C          2.7922602882        0.5746921198       -0.0031761896
 C          4.2057409965        0.9185480728       -0.0043103070
 C          5.2539597807        0.1088167957        0.0012697899
 F          5.2664898757       -1.2200364434        0.0091074590
 F          6.5131635908        0.5483952582        0.0002244207
 C          1.8696188977        1.6366529558       -0.0008863617
 C          0.5065867834        1.4314187533        0.0004663281
 O         -2.4302545895        1.5342319001        0.0009285243
 C         -5.0527428719        0.8624870276        1.2606835876
 H         -4.8212388787        0.2681179535       -2.1451464006
 H         -4.4269165583        1.7479644416       -1.2595003432
 H         -6.0939800838        1.1616919150       -1.3020330627
 H         -5.4765081178       -1.8204912288       -0.8796629144
 H         -6.7316225461       -0.9398713380        0.0026519411
 H         -5.4757908859       -1.8189778404        0.8854317182
 H         -2.0151458728       -2.3829656480       -0.0018196041
 H          0.5497038195       -3.1629858655       -0.0063873869
 H          3.0089728868       -1.5741475477       -0.0070235154
 H          4.4454293831        1.9721739846       -0.0095741527
 H          2.2455993862        2.6487958095       -0.0000814903
 H         -0.1860892432        2.2562335005        0.0023174551
 H         -6.0946364260        1.1671912940        1.2982819721
 H         -4.4264436540        1.7502869264        1.2584108553
 H         -4.8257061555        0.2733670617        2.1468493798
