  24
        -36.74617444
 C          3.9458360959        0.7239444236       -0.0673765880
 C          2.4637933701        0.5202219037       -0.0167882578
 C          1.6099452458        1.6168595609        0.0104644122
 C          0.2367558306        1.4523774050        0.0597192940
 C         -0.2761620063        0.1723628167        0.0824972119
 S         -2.0494932945       -0.0688120268        0.0990453836
 C         -2.4759261315       -0.0781219386       -1.6709148494
 O         -2.3459981450       -1.3704741707        0.6348721421
 O         -2.6802543723        1.0737837919        0.7030738148
 C          0.5509008470       -0.9316128767        0.0588541939
 C          1.9292237087       -0.7746320054        0.0115319755
 C          2.8245322722       -1.9738297405       -0.0062240083
 H          4.1903434209        1.7823323966       -0.0906420786
 H          4.3680097021        0.2495366668       -0.9524711625
 H          4.4221277962        0.2768190257        0.8042719821
 H          2.0279410121        2.6128334888       -0.0035625136
 H         -0.4379280874        2.2924878343        0.0993601882
 H         -1.9418013811       -0.8941742314       -2.1394800896
 H         -2.1873922141        0.8767972254       -2.0899227889
 H         -3.5455873995       -0.2241404338       -1.7533137558
 H          0.1005915841       -1.9117499679        0.0977332305
 H          2.2393776535       -2.8884366470        0.0260436284
 H          3.4968967765       -1.9614218791        0.8506232302
 H          3.4377662762       -1.9827420193       -0.9067483601
