  29
        -37.51493799
 C          2.8071996434        2.3826127338       -0.2202220127
 C          2.5741196889        1.1368175760        0.1745754006
 C          1.2939420840        0.4706833625        0.0833994283
 C          0.0395947191        1.0532176237        0.0349896417
 N         -0.8716271668        0.0618390711        0.0504991356
 C         -2.3189264659        0.2032993324       -0.0063260398
 C         -2.6979180425        0.8072432493       -1.3628058239
 C         -2.9446385519       -1.1808011603        0.1468634893
 C         -2.7769027669        1.1154164773        1.1360577690
 N         -0.2940620658       -1.1297499430        0.0991762567
 C          1.0184151275       -0.9254389698        0.1144328339
 C          1.9167902877       -2.0596449344        0.1302019383
 C          3.1638322345       -2.0653690675       -0.3241289617
 H          3.7755969747        2.8394740348       -0.1091158119
 H          2.0432717332        2.9881234459       -0.6787360838
 H          3.3700857857        0.5511571377        0.6158155708
 H         -0.2368825774        2.0874315639        0.0165128231
 H         -2.3479216560        0.1658766574       -2.1684579257
 H         -2.2529926786        1.7916936691       -1.4875865318
 H         -3.7776297076        0.9039992775       -1.4390391586
 H         -2.5948537320       -1.8400764938       -0.6417496784
 H         -4.0273263486       -1.1041637662        0.0966419668
 H         -2.6617173346       -1.6174289003        1.1003258657
 H         -2.3822877570        2.1216128096        1.0196253929
 H         -2.4391807521        0.7198418229        2.0912953834
 H         -3.8620249114        1.1735617004        1.1487776623
 H          1.4710306572       -2.9668682894        0.5169132281
 H          3.6193752177       -1.1969339325       -0.7682549208
 H          3.7694093551       -2.9550781595       -0.2851750324
