  21
        -40.72548497
 C          2.6761589821       -1.5973028934       -0.0073141772
 C          1.2505903317       -1.1898299869       -0.0273681766
 S          0.0011682324       -2.3913519427       -0.0300481056
 C         -1.2494644029       -1.1914688786       -0.0026761262
 C         -2.6745120484       -1.6001362261       -0.0319381091
 C         -0.7194430202        0.0700464503       -0.0016874411
 C         -1.5686864396        1.2851773429       -0.0931079495
 O         -2.6017149201        1.4207833870        0.5051832859
 O         -1.1223581678        2.2515620453       -0.9147225560
 C          0.7192355660        0.0706516704        0.0032329181
 C          1.5673277464        1.2840681138        0.1248528725
 O          2.5978586349        1.4376134134       -0.4733492992
 O          1.1225338664        2.2266759535        0.9744329626
 H          2.9172749449       -2.1016230084        0.9286323391
 H          3.3137021686       -0.7248261864       -0.1213195004
 H          2.8792592253       -2.2914104900       -0.8212949804
 H         -2.9125929940       -2.0928018929       -0.9747928835
 H         -3.3133844463       -0.7300171172        0.0921554134
 H         -2.8789269856       -2.3048046701        0.7726646103
 H         -0.2955457195        2.0375032949       -1.3681402870
 H          0.2970992028        1.9991082651        1.4237921211
