  24
        -37.89929305
 C         -3.5803173077        1.3353349500        0.1093051288
 C         -2.9356838490        0.1800339610       -0.0080326668
 C         -1.4930807093       -0.0129480050       -0.0137934045
 C         -0.5751699454        1.0399836329       -0.0128339079
 C          0.7923593479        0.8216928994       -0.0186940936
 O          1.7160518263        1.8237058918       -0.0161789772
 C          1.2747388587        3.1586538138       -0.0185549178
 C          1.3037513427       -0.4968964710       -0.0228709572
 C          2.7439016673       -0.7039382349       -0.0312383691
 C          3.3744938444       -1.8626756873        0.1263483853
 C          0.3923938767       -1.5476650061       -0.0304605289
 C         -0.9626228495       -1.3030390883       -0.0271565880
 F         -1.8007340663       -2.3677562740       -0.0366297179
 H         -4.6557043141        1.3736265729        0.1051470865
 H         -3.0777911052        2.2812466651        0.2186622202
 H         -3.5088420895       -0.7330985940       -0.1010793084
 H         -0.9603539627        2.0454643125       -0.0139273530
 H          2.1794571579        3.7649229408       -0.0189336365
 H          0.6868632247        3.3907894218        0.8753287407
 H          0.6872145154        3.3881146969       -0.9134353254
 H          3.3201654420        0.1998209249       -0.1696545939
 H          2.8596605922       -2.7940033978        0.2886236229
 H          4.4491331416       -1.9175226329        0.1050716482
 H          0.7331776188       -2.5697094834       -0.0484186411
  24
        -37.89836341
 C         -3.9438100948       -0.0555411136        0.0148951318
 C         -2.8439009086        0.6901164891        0.0243025659
 C         -1.4595721336        0.2398286777        0.0086525830
 C         -0.4504499481        1.2098381225        0.0013466834
 C          0.8962171583        0.8892563734       -0.0153209998
 O          1.8955752896        1.8152983818       -0.0213103925
 C          1.5605054622        3.1808355255       -0.0236664749
 C          1.2977395379       -0.4658230067       -0.0214828795
 C          2.7152787854       -0.7922349555       -0.0422837830
 C          3.2485541772       -2.0021139103        0.0879559767
 C          0.2997012121       -1.4336916446       -0.0159299133
 C         -1.0346489686       -1.0886899923       -0.0011147132
 F         -1.9271798901       -2.1066427343        0.0019798233
 H         -4.9174810105        0.4049619099        0.0281096121
 H         -3.9297146832       -1.1295109226       -0.0062792808
 H         -2.9484939590        1.7688984326        0.0445198336
 H         -0.7591861147        2.2436830451        0.0081993076
 H          0.9829939980        3.4533982532       -0.9129374590
 H          2.5099736567        3.7141271992       -0.0357883074
 H          1.0021424920        3.4608995893        0.8753883899
 H          3.3637638745        0.0631538273       -0.1682403283
 H          2.6593392511       -2.8911262291        0.2333343327
 H          4.3148978783       -2.1450374400        0.0587392666
 H          0.5541428552       -2.4808025376       -0.0308901955
  24
        -37.89758487
 C         -3.4958516622        1.4881068603       -0.1180555191
 C         -2.9484463722        0.2852196962        0.0134350869
 C         -1.5268481238       -0.0264513199        0.0149560690
 C         -0.5238235406        0.9444137245        0.0162694831
 C          0.8261248439        0.6270828581        0.0127539341
 O          1.8030067704        1.5743243709        0.0225007145
 C          1.4445270457        2.9338060305        0.0717047852
 C          1.2322010985       -0.7281321389        0.0061306510
 C          2.6096298993       -1.1961008209       -0.0051751320
 C          3.7267772217       -0.4836678437       -0.1084619954
 C          0.2299867727       -1.6976867392        0.0161264514
 C         -1.1024851238       -1.3544390156        0.0211412953
 F         -2.0199649449       -2.3509956848        0.0275251384
 H         -4.5643376723        1.6154936296       -0.1102416631
 H         -2.9170830586        2.3872547420       -0.2440578346
 H         -3.5942831422       -0.5764572792        0.1206463495
 H         -0.8285787609        1.9769244419        0.0257335198
 H          2.3855766595        3.4820140243        0.0943323574
 H          0.8710277303        3.1686883921        0.9740521114
 H          0.8758738597        3.2349835948       -0.8140272527
 H          2.6932966743       -2.2742284900        0.0718848940
 H          3.7286865954        0.5856938487       -0.1971813315
 H          4.6874128322       -0.9718936799       -0.1092848678
 H          0.4945156992       -2.7441772455        0.0173113820
  24
        -37.89084201
 C         -4.0406038449        0.0232384872        0.1765641345
 C         -2.9122860203        0.7179983933        0.2757897805
 C         -1.5483468019        0.2277832467        0.1386209606
 C         -0.4937179598        1.1266950600        0.3164964488
 C          0.8378613027        0.7603999254        0.2265132725
 O          1.7898265458        1.7429603368        0.4313915496
 C          2.2977887446        2.2997755611       -0.7629157968
 C          1.1875651831       -0.5695912439       -0.0607302407
 C          2.5563130034       -1.0682752438       -0.1399838950
 C          3.6156803785       -0.5425776007        0.4632797054
 C          0.1430981860       -1.4683397327       -0.2754362985
 C         -1.1753554243       -1.0822232548       -0.1724622991
 F         -2.1069861598       -2.0362073016       -0.3924049675
 H         -4.9943855156        0.5072686382        0.3034749670
 H         -4.0702630971       -1.0311026852       -0.0285459027
 H         -2.9692416895        1.7787547814        0.4892894791
 H         -0.7158410174        2.1590792216        0.5452113101
 H          3.0306126900        3.0463636450       -0.4626963937
 H          1.5018380869        2.7809239808       -1.3425591859
 H          2.7827327378        1.5399833100       -1.3848889632
 H          2.6668739146       -1.9786302593       -0.7176981823
 H          3.5443122616        0.3389361053        1.0757339688
 H          4.5902641667       -0.9914712822        0.3691039805
 H          0.3599613318       -2.4996596836       -0.5110860399
  24
        -37.89070030
 C         -4.0489034611       -0.2350122229       -0.0132238094
 C         -3.0058627055        0.5865749850        0.0306501544
 C         -1.5930626706        0.2328154862        0.0455269825
 C         -0.6512297630        1.2574770205        0.1145010182
 C          0.7213262078        1.0379186761        0.1494462610
 O          1.4747293997        2.1765446176        0.2099410892
 C          2.7375489523        2.2321338747       -0.4206672031
 C          1.2132387146       -0.2775515547        0.1363285032
 C          2.6291182075       -0.6173175205        0.2969639179
 C          3.2354429089       -1.6246727283       -0.3157244213
 C          0.2810601904       -1.3090514960        0.0312678127
 C         -1.0723749290       -1.0628912142       -0.0160410053
 F         -1.8858031932       -2.1402652730       -0.1078368096
 H         -5.0532073953        0.1543297534       -0.0168254091
 H         -3.9578046124       -1.3051934562       -0.0458240029
 H         -3.1821604711        1.6549958575        0.0645944594
 H         -0.9847641424        2.2836880748        0.1458116928
 H          2.7992638767        3.2097644786       -0.9040395886
 H          2.8524706518        1.4509276119       -1.1738020254
 H          3.5455934740        2.1548567691        0.3117004032
 H          3.1815047861       -0.0044026740        0.9962987495
 H          2.7265473704       -2.2460577164       -1.0335501529
 H          4.2713584504       -1.8537535311       -0.1345937598
 H          0.6192639727       -2.3334606726        0.0252009014
