  23
        -42.43399088
 C         -1.1456052139        2.7045499245       -0.4875243194
 C         -0.2812576350        2.0346151461        0.2605935196
 C          0.1386578375        0.6603097659        0.0205503947
 C         -0.6626138378       -0.3771573952       -0.3748918506
 C         -2.0973880810       -0.4730887971       -0.5114986010
 C         -3.0050303657        0.1348255821        0.2389156633
 F         -2.7857812794        0.9693062024        1.2453122836
 F         -4.3160123469       -0.0185152437        0.0706271380
 S          0.2380469822       -1.8494304129       -0.6961861666
 C          1.7278272462       -1.0716021500       -0.2566452840
 C          2.9899347672       -1.6459110560       -0.2498237166
 C          4.0621697333       -0.8640629034        0.1258585460
 C          3.8781091687        0.4710256629        0.4844018699
 C          2.6251949481        1.0415552320        0.4736731603
 C          1.5191604228        0.2708666103        0.1077153326
 H         -1.3971325265        3.7289162581       -0.2760275719
 H         -1.6282595847        2.2568125691       -1.3405717957
 H          0.2113567920        2.5248542554        1.0899480159
 H         -2.4723077119       -1.1693875028       -1.2477308222
 H          3.1203707647       -2.6785422072       -0.5336348939
 H          5.0542647184       -1.2890157682        0.1401721405
 H          4.7333499267        1.0639795984        0.7719962152
 H          2.4922391048        2.0772944374        0.7459269413
