  23
        -42.06760023
 C          4.1012512890        1.4047818348        0.1079892387
 C          3.7089312339        0.1371715493        0.0490447285
 C          2.3334614859       -0.3356687939       -0.0190629913
 C          2.0758611025       -1.7112630779       -0.0510600490
 C          0.7915026822       -2.2091718755       -0.1067635512
 C         -0.3169803874       -1.3552809640       -0.1408518006
 C         -1.6891462416       -1.8382680854       -0.1892013789
 C         -2.0860411730       -3.0279839683        0.2483123345
 C         -0.0410994659        0.0091178015       -0.1269268860
 S         -1.3411710361        1.2096699141       -0.1377745565
 O         -0.8265410295        2.5219335609        0.0378484633
 O         -2.3409469506        0.9748393144       -1.1206443901
 F         -2.0417890935        0.8074205351        1.3024777768
 C          1.2317267044        0.5215214786       -0.0566072411
 H          5.1449695962        1.6624257186        0.1577957299
 H          3.4096829543        2.2290895991        0.1112588492
 H          4.4546941451       -0.6478554317        0.0523931717
 H          2.9083375283       -2.4001221916       -0.0302142506
 H          0.6345387645       -3.2758893480       -0.1403608624
 H         -2.4069587449       -1.1413138336       -0.5948857250
 H         -1.4112562951       -3.7369029793        0.6991773532
 H         -3.1181856885       -3.3257475662        0.1908964437
 H          1.3393971261        1.5927611285       -0.0285478642
