  30
        -75.09764983
 C          5.9010041325       -0.8553547100       -0.1489862881
 C          5.0450206211        0.1325970228        0.0885663429
 C          3.5897178712        0.0604927950        0.0371718445
 C          2.8417109881        1.1007517112        0.6048800677
 F          3.4832625423        2.1194609024        1.1920775530
 C          1.4559826987        1.1104503102        0.5950574154
 F          0.7964891194        2.1130658791        1.1840404584
 C          0.7368447500        0.0719203631        0.0073505326
 C         -0.7368504619        0.0718837893       -0.0076389135
 C         -1.4560825785        1.1104104385       -0.5952352853
 F         -0.7966844115        2.1130228315       -1.1843323723
 C         -2.8418165478        1.1007093467       -0.6048245765
 F         -3.4834797905        2.1194114709       -1.1919188116
 C         -3.5897210774        0.0604397401       -0.0370053204
 C         -5.0450395380        0.1325530554       -0.0880309723
 C         -5.9008999200       -0.8555742818        0.1492083757
 C         -2.8542311041       -0.9716285763        0.5557959870
 F         -3.4745352536       -1.9944423301        1.1554892868
 C         -1.4662492417       -0.9652719845        0.5680924716
 F         -0.8138519284       -1.9622127273        1.1757411644
 C          1.4663388868       -0.9652157506       -0.5682924159
 F          0.8140396834       -1.9621574185       -1.1760411961
 C          2.8543214044       -0.9715611578       -0.5557799450
 F          3.4747173093       -1.9943966914       -1.1553404201
 H          6.9608198004       -0.6835572608       -0.0731893518
 H          5.5994670710       -1.8526550398       -0.4134030382
 H          5.4228878619        1.1044207429        0.3767276191
 H         -5.4230129507        1.1045458937       -0.3754499001
 H         -5.5992141895       -1.8529791483        0.4130240713
 H         -6.9607485324       -0.6838217937        0.0737257518
