  20
        -26.43752595
 C         -3.0350131422        1.6565924473       -0.0946226822
 C         -2.6712479953        0.3885911507        0.0515010498
 C         -1.3098537917       -0.1359455632        0.0338287796
 C         -1.1198019526       -1.5182489340       -0.0066076824
 C          0.1548626351       -2.0529599381       -0.0293756074
 C          1.2619690869       -1.2268346218       -0.0090955454
 C          1.1062513343        0.1598423989        0.0368636226
 C          2.2360373967        1.0828022284        0.0650683129
 C          3.5175660670        0.7742964616       -0.0905196476
 C         -0.1842516047        0.6829882252        0.0619738605
 H         -4.0712422481        1.9478912198       -0.0727824355
 H         -2.3269503063        2.4529006682       -0.2480974703
 H         -3.4393337695       -0.3641558053        0.1845800014
 H         -1.9792057678       -2.1736124971       -0.0230191076
 H          0.2861897443       -3.1251721948       -0.0601996251
 H          2.2495479262       -1.6607189074       -0.0181737104
 H          1.9637805370        2.1202981521        0.2197215667
 H          3.8595360641       -0.2321151932       -0.2610187289
 H          4.2831513693        1.5305972020       -0.0576224345
 H         -0.3073051795        1.7548973357        0.1100193417
