  34
        -52.78181815
 C         -4.7897139342        1.6115325923        0.7386358149
 C         -3.5595306989        1.9056789159        0.3354756934
 C         -2.4957224720        0.9567366425        0.0363992527
 C         -2.6120397830       -0.4226156159        0.2032449489
 C         -1.5870812811       -1.3091896245       -0.0901869469
 C         -1.7285073283       -2.7508357701        0.0873467519
 C         -2.6322449632       -3.3605907346        0.8440598765
 C         -0.3692141782       -0.8001261268       -0.5945226494
 O          0.5979474278       -1.7095201874       -0.8771726872
 C          1.8343119337       -1.2593320612       -1.3888379060
 C          2.6485543782       -0.4463731542       -0.4105260267
 C          3.5598008514        0.4942444460       -0.8730514415
 C          4.3164643647        1.2305861143        0.0205379183
 C          4.1636855594        1.0383241110        1.3833707503
 C          3.2565835747        0.1022384887        1.8488889280
 C          2.5049765979       -0.6409181030        0.9562325235
 C         -0.2223415424        0.5697515401       -0.7647792630
 C         -1.2700882187        1.4113575605       -0.4484517787
 F         -1.0744706890        2.7367881015       -0.6341520295
 H         -5.5102269388        2.3865705094        0.9341039433
 H         -5.1320733413        0.6018677841        0.8869695668
 H         -3.2851786268        2.9437281330        0.1993649784
 H         -3.5444199664       -0.8214621403        0.5660318747
 H         -0.9957230639       -3.3397519473       -0.4466938153
 H         -3.3623640400       -2.8249275578        1.4267449780
 H         -2.6658196006       -4.4338697964        0.9178782064
 H          1.6837135398       -0.6977473389       -2.3211876712
 H          2.3733169738       -2.1827087734       -1.6323034380
 H          3.6751112649        0.6500848696       -1.9367426174
 H          5.0220800270        1.9602937057       -0.3480469598
 H          4.7498333371        1.6185040401        2.0802848300
 H          3.1333098993       -0.0518398036        2.9105840704
 H          1.7971480876       -1.3727173061        1.3174529612
 H          0.6926176974        1.0093932278       -1.1261731687
