  23
        -38.06682317
 C         -4.5225679485       -1.3159641933       -0.0373084902
 C         -3.8232059587       -0.1873701687       -0.0699417323
 C         -2.3747519884       -0.0587263917        0.0080553144
 C         -1.5159170636       -1.1456500206        0.1747183132
 C         -0.1529642117       -0.9590477680        0.2383564459
 C          0.4124929540        0.3141528522        0.1390136040
 C          1.8523331747        0.5146703628        0.2213444391
 C          2.8042072443       -0.3780777124       -0.0036260351
 F          2.6703486202       -1.6452571029       -0.3791181224
 F          4.1041683641       -0.0981054580        0.1057010111
 C         -0.4380388364        1.4209085431       -0.0227532854
 C          0.1030942984        2.8144394946       -0.1444852948
 C         -1.8040481248        1.2113594827       -0.0855280118
 H         -5.5969792623       -1.3095197391       -0.1038255352
 H         -4.0632619299       -2.2850560362        0.0539024447
 H         -4.3527333020        0.7528934181       -0.1678402169
 H         -1.9139178754       -2.1441391877        0.2600621771
 H          0.4851058647       -1.8161314664        0.3821843750
 H          2.2073767452        1.4985741096        0.4867641767
 H          0.6031442300        3.1169465279        0.7755826460
 H         -0.7032037585        3.5176063805       -0.3366988537
 H          0.8203273226        2.8828147757       -0.9608717762
 H         -2.4561258341        2.0646379371       -0.2148888227
