  51
        -58.13578841
 C         -4.3237237061       -2.1125827863        0.5097628672
 C         -3.1672171173       -1.2673980595        1.0303324335
 C         -2.1311551169       -0.9403605972       -0.0451164757
 C         -2.6457449160       -0.0868042134       -1.2051196572
 C         -3.2278978967        1.2714120861       -0.8082065286
 C         -2.2709098522        2.1807900669       -0.0361622433
 C         -1.0121912358        2.5313861836       -0.8263189539
 C         -0.1973511907        3.6567159636       -0.1869826095
 C          0.3202652393        3.3566463629        1.2224195369
 C          1.1398631513        2.0723710239        1.3476309524
 C          2.3897996298        2.0628355493        0.4726040432
 C          3.1928003818        0.7676978486        0.6419354131
 C          2.3928331389       -0.4433055494        0.2673246111
 C          1.8552672102       -1.3414830030        1.2302512678
 C          1.1503559298       -2.3699500881        0.6988330521
 C          0.4602233134       -3.4863769978        1.3979008886
 S          1.1243866514       -2.2602780038       -1.0347203803
 C          2.0799267445       -0.8065188052       -1.0076256990
 C          2.4330800795       -0.1387974511       -2.2905364508
 H         -4.9811414678       -2.4001047994        1.3276684928
 H         -3.9503028794       -3.0180977976        0.0354345806
 H         -4.9124481434       -1.5615664538       -0.2189427127
 H         -2.6640762884       -1.8130527168        1.8334943782
 H         -3.5572026474       -0.3447545943        1.4631432166
 H         -1.7546090028       -1.8765479792       -0.4651833584
 H         -1.2846038355       -0.4375512753        0.4271122987
 H         -3.4158289881       -0.6432980373       -1.7435104353
 H         -1.8194750644        0.0665224625       -1.9023940453
 H         -4.1249838943        1.1167108795       -0.2048496623
 H         -3.5395894407        1.7853124105       -1.7219783348
 H         -1.9960363652        1.7037255812        0.9047362139
 H         -2.8017090368        3.1054480695        0.2075992710
 H         -1.3053452084        2.8518781610       -1.8301413736
 H         -0.3865396969        1.6452017091       -0.9350601333
 H         -0.8189376172        4.5547749792       -0.1339220923
 H          0.6478554401        3.8901447071       -0.8382584091
 H         -0.5272547751        3.2943981137        1.9081565498
 H          0.9360066146        4.2011662052        1.5440177166
 H          0.5188488287        1.2123993289        1.0930402557
 H          1.4392470616        1.9563050698        2.3929502079
 H          3.0239552653        2.9135782783        0.7340289825
 H          2.1061345766        2.1642944204       -0.5747112684
 H          3.5102712816        0.6722874247        1.6822191949
 H          4.0908232184        0.8228866171        0.0202787605
 H          1.9998113391       -1.2150926016        2.2893742930
 H          0.5954225645       -3.3887277940        2.4726352658
 H          0.8620525582       -4.4480364325        1.0789244844
 H         -0.6068296980       -3.4807072718        1.1764501267
 H          2.5551679207       -0.8762819331       -3.0814735778
 H          3.3598096042        0.4218108100       -2.1837609784
 H          1.6476810599        0.5540977241       -2.5984552006
