  29
        -45.82176077
 C         -6.5483264111        0.2300666658        0.0010328580
 C         -5.1157771232       -0.1653712956       -0.0006112203
 C         -4.5807096795       -1.4172421583       -0.0043962073
 C         -3.1735771399       -1.4290682587       -0.0042155094
 C         -2.6228227750       -0.1748211008       -0.0004611409
 C         -1.2465779456        0.1926112975        0.0000646183
 C         -0.6994606731        1.4524278903        0.0000707910
 C          0.6994640589        1.4524255945       -0.0000010596
 C          1.2465771666        0.1926067570        0.0000464666
 C          2.6228216831       -0.1748255384        0.0005447761
 C          3.1735789130       -1.4290689059        0.0042700295
 C          4.5807120218       -1.4172434789        0.0044217141
 C          5.1157788822       -0.1653726375        0.0005900796
 C          6.5483272650        0.2300672632       -0.0010940112
 S          3.8705566441        1.0445805687       -0.0032192633
 S         -0.0000019789       -1.0253642519       -0.0000558699
 S         -3.8705594861        1.0445788294        0.0031801545
 H         -7.1778213093       -0.6565238669       -0.0109830958
 H         -6.7808519357        0.8392298790       -0.8722447432
 H         -6.7847462851        0.8176684892        0.8880477902
 H         -5.1797634805       -2.3108511877       -0.0073731909
 H         -2.5771384909       -2.3242133633       -0.0070626553
 H         -1.3022648216        2.3435160282        0.0001615185
 H          1.3022717710        2.3435107594       -0.0001694412
 H          2.5771410830       -2.3242123283        0.0071412818
 H          5.1797677190       -2.3108488705        0.0074043412
 H          7.1778370129       -0.6565184686        0.0106640865
 H          6.7809444338        0.8390371904        0.8723024925
 H          6.7846794181        0.8178794850       -0.8879916478
