  24
        -33.66452292
 C          0.1674985092        3.6780798307       -0.1135773897
 C          0.8792595441        2.5752936019        0.0833063725
 C          0.3841558857        1.2025279941        0.0776659314
 C         -0.9697011907        0.8878846963        0.0148031511
 C         -1.4071515572       -0.4340849821        0.0115081996
 C         -2.8181741651       -0.8010114469       -0.0510480255
 C         -3.8554059713        0.0241494972       -0.1210697900
 C         -0.4551900920       -1.4528968925        0.0669404650
 C          0.8984143165       -1.1628851922        0.1345966287
 C          1.9154521610       -2.2766997378        0.2081564539
 O          3.1779381605       -1.9333558516       -0.3104547903
 C          1.3097012392        0.1599842737        0.1443170222
 H          0.6273118223        4.6512904649       -0.0937392332
 H         -0.8915335065        3.6639855619       -0.3064564998
 H          1.9446319392        2.6651379692        0.2585163405
 H         -1.6948012856        1.6836732902       -0.0232118743
 H         -3.0020196923       -1.8687820015       -0.0372478281
 H         -3.7515716545        1.0953526102       -0.1393838419
 H         -4.8642556154       -0.3492290304       -0.1629775186
 H         -0.7781557890       -2.4850183238        0.0612323495
 H          1.5196770420       -3.1708097956       -0.2974801166
 H          2.0962839495       -2.5368144883        1.2569623394
 H          3.0668608954       -1.6438346761       -1.2230631002
 H          2.3661814768        0.3806026873        0.2056986245
