20
 energy: -39.107127536881 gnorm: 0.000094555473 xtb: 6.4.1 (23d549d)
C         2.71563329770000   -2.62693250520000   -0.15283191380000
C         2.51218180570000   -1.33154348370000    0.05161347620000
C         1.22297955160000   -0.64838935780000    0.02424360990000
C         0.00114200850000   -1.31397939020000   -0.00400368350000
C        -1.22166163540000   -0.65028384000000   -0.02967678680000
C        -2.50936360230000   -1.33635091530000   -0.05937336480000
C        -2.71117617200000   -2.62889279220000    0.16346648370000
C        -1.19857593660000    0.74801655660000   -0.03516123170000
F        -2.34888139230000    1.44053601960000   -0.06481641160000
C        -0.00131829550000    1.44823120630000    0.00066155610000
F        -0.00238674110000    2.78869345490000    0.00290950660000
C         1.19715848600000    0.74990063930000    0.03407418640000
F         2.34602421520000    1.44471523020000    0.06597802940000
H         3.70677936450000   -3.04368614530000   -0.11623580090000
H         1.92045476880000   -3.31856204870000   -0.37197888940000
H         3.35921046680000   -0.68697886620000    0.24400792020000
H         0.00170135770000   -2.39032655460000   -0.00696034460000
H        -3.35603401300000   -0.69656595140000   -0.26876178980000
H        -1.91598754270000   -3.31397725040000    0.40208888870000
H        -3.70069135420000   -3.04925036770000    0.12437244490000
