  24
        -38.04093428
 C          2.4839049628        3.0225382612        0.0001641718
 C          2.5723650862        1.6965888222        0.0008236949
 C          1.4481607754        0.7880313033       -0.0003247003
 C          0.0827752051        1.1251081205       -0.0006799305
 C         -0.6380525295       -0.0544090547       -0.0011934009
 C         -2.0642024779       -0.3311692919       -0.0006551864
 O         -2.5312005072       -1.4509053588       -0.0006971884
 O         -2.8092568962        0.7869773879        0.0001704473
 C         -4.2138208588        0.5875102850        0.0019091333
 N          0.2508735837       -1.0894115088       -0.0011518784
 C          1.5199388188       -0.6173244632       -0.0005987604
 C          2.6803120383       -1.4662176947       -0.0002015068
 C          2.6690460637       -2.7982799735        0.0018660443
 H          3.3621613759        3.6444732806        0.0013837678
 H          1.5370940778        3.5337463244       -0.0016803486
 H          3.5502720936        1.2334924510        0.0025977331
 H         -0.3422054287        2.1075108395       -0.0005509107
 H         -4.6610885089        1.5780183258       -0.0019690416
 H         -4.5183481149        0.0322917969        0.8918718981
 H         -4.5195652355        0.0245798797       -0.8827572450
 H         -0.0340298011       -2.0556670357       -0.0017759192
 H          3.6280750915       -0.9468335814       -0.0015135263
 H          1.7600604636       -3.3759981482        0.0036191883
 H          3.5842685496       -3.3631551075        0.0019209883
