  82
        -97.86649166
 C         -2.8859608560        3.0063494116        2.8378783072
 C         -1.9175516518        2.9955966301        1.9284458767
 C         -1.9361561996        2.3093045760        0.6454616224
 C         -3.0971736674        1.7635127537        0.1054529334
 C         -3.1156921770        1.0862034229       -1.1046761717
 O         -4.2304031930        0.4912833986       -1.6196702491
 C         -5.3462923405        0.2266627170       -0.7975042392
 C         -5.1060928516       -0.7649725099        0.3458263958
 C         -4.7072787398       -2.1722725224       -0.1062069080
 C         -3.2875259073       -2.2970298746       -0.6656144214
 C         -2.2053307318       -1.9341160040        0.3494629367
 C         -0.7987764214       -2.1269965507       -0.2166099248
 C          0.2657098276       -1.3979185374        0.6038721689
 C          0.4455404808       -1.9665487482        2.0095984542
 C          1.4409178898       -1.1672807730        2.8524142118
 C          0.8944438056        0.1860156781        3.2937115007
 C         -1.9257068785        0.9930214464       -1.8535814814
 C         -1.8102503752        0.3447136420       -3.1518491473
 C         -2.7864468961       -0.0079231521       -3.9814570502
 C         -0.7622930699        1.5415784719       -1.3112789420
 C         -0.7369707236        2.1769143337       -0.0823036070
 O          0.3948857563        2.6785738554        0.4949718759
 C          1.6414790626        2.3958786051       -0.1051254477
 C          2.7416647586        2.8660664105        0.8427620809
 C          4.1201223620        2.3627531005        0.4126976891
 C          4.3367008650        0.8885396675        0.7525185321
 C          5.6474384731        0.3564106649        0.1788693883
 C          5.9690144290       -1.0722166295        0.6238668045
 C          4.9067347951       -2.1202899559        0.2837215376
 C          4.6211605680       -2.2397303409       -1.2115621228
 C          3.5992395827       -3.3303552449       -1.5393246263
 C          4.1327521814       -4.7420477020       -1.3262446468
 H         -2.7746527841        3.5454980967        3.7627895353
 H         -3.8186454267        2.4826398970        2.7115654354
 H         -0.9955288541        3.5222197757        2.1321197996
 H         -4.0130401503        1.8866988246        0.6593497042
 H         -6.0830665879       -0.1911771737       -1.4907779691
 H         -5.7567457891        1.1626174198       -0.3923900425
 H         -6.0451936592       -0.8311921853        0.9010945612
 H         -4.3487833670       -0.3738391194        1.0242989567
 H         -5.4150940848       -2.5115708661       -0.8665886601
 H         -4.8022880558       -2.8405396760        0.7541723022
 H         -3.1841807928       -1.6664708377       -1.5483705398
 H         -3.1386712057       -3.3325407227       -0.9837219026
 H         -2.3363116771       -2.5464647544        1.2443218631
 H         -2.3086667075       -0.8870962244        0.6385943448
 H         -0.7797241783       -1.7302887426       -1.2346271703
 H         -0.5613044743       -3.1921577485       -0.2711601140
 H         -0.0178681744       -0.3464438062        0.6694592931
 H          1.2222512699       -1.4552604498        0.0755977092
 H          0.7923702425       -3.0003411456        1.9290539034
 H         -0.5155821042       -1.9777479392        2.5253613914
 H          2.3625819228       -1.0199501787        2.2848888458
 H          1.6941334808       -1.7496574425        3.7421058384
 H          0.6730026997        0.8233129981        2.4424543496
 H          1.6194350980        0.6985415940        3.9230209988
 H         -0.0220896427        0.0573186012        3.8658027742
 H         -0.7848829481        0.1636204856       -3.4567556488
 H         -3.8228390861        0.1624828521       -3.7593342023
 H         -2.5634037015       -0.4783989793       -4.9251122343
 H          0.1429514833        1.4554221010       -1.8921766005
 H          1.7293238115        2.9147275781       -1.0703331519
 H          1.7291719821        1.3158834393       -0.2798064138
 H          2.5129199643        2.5032038023        1.8460137653
 H          2.7313395435        3.9566585632        0.8728870521
 H          4.8880559973        2.9568275784        0.9121049907
 H          4.2383872212        2.5115306386       -0.6636002718
 H          3.5082439611        0.3020143532        0.3557767315
 H          4.3408569645        0.7690333871        1.8384051126
 H          6.4653315471        1.0054407794        0.5027092204
 H          5.6106069828        0.4040451276       -0.9111042724
 H          6.1161307585       -1.0753143076        1.7071037742
 H          6.9147894669       -1.3698758751        0.1638621211
 H          3.9782894272       -1.8909130498        0.8098971186
 H          5.2606700514       -3.0821314458        0.6594586053
 H          5.5530968297       -2.4474838723       -1.7429081586
 H          4.2349040377       -1.2874364719       -1.5803550549
 H          3.3001746247       -3.2243851434       -2.5851922171
 H          2.7064492243       -3.1851293674       -0.9263066840
 H          5.0394982760       -4.8976579362       -1.9071481539
 H          3.3938398748       -5.4752630110       -1.6419191662
 H          4.3600483426       -4.9221829880       -0.2787998743
