  18
        -22.22105000
 C          2.5137465369        1.0442257365        0.0001174045
 C          1.2108363444        0.3021339310       -0.0001913576
 C          0.0000005892        0.9801123257       -0.0000190681
 C         -1.2108338922        0.3021374598        0.0001569388
 C         -2.5137449992        1.0442274140       -0.0000931400
 C         -1.1989385080       -1.0871755662        0.0001760890
 C         -0.0000029411       -1.7763163766        0.0000236729
 C          1.1989368196       -1.0871759140       -0.0001700731
 H          2.3515184343        2.1191497132       -0.0056348440
 H          3.1027156843        0.7766792472       -0.8764990455
 H          3.0970175229        0.7854781233        0.8832219901
 H          0.0000030312        2.0618684424       -0.0000059806
 H         -2.3515156228        2.1191564301        0.0046033707
 H         -3.1021942832        0.7774864501        0.8771230277
 H         -3.0975386028        0.7846669529       -0.8826085750
 H         -2.1344442811       -1.6283510627        0.0001697278
 H          0.0000014695       -2.8569014058       -0.0000788170
 H          2.1344372489       -1.6283607614       -0.0002964138
