31
 energy: -50.042146631537 gnorm: 0.000082118505 xtb: 6.4.1 (23d549d)
C        -5.91995947850000    2.39277566250000   -0.05047008130000
C        -6.00888704910000    1.06507871770000   -0.02971394940000
C        -4.89157229810000    0.16455485470000   -0.01147693630000
C        -4.93443121490000   -1.20916829990000    0.01016184310000
C        -3.67332957900000   -1.81222558520000    0.02423688170000
C        -2.63788255680000   -0.90390535310000    0.01356810740000
C        -1.23861523960000   -1.16916807110000    0.02247420090000
C        -0.60664903840000   -2.39366563690000    0.04884007590000
C         0.78609904430000   -2.30125344430000    0.04983177440000
C         1.25045549950000   -1.00388214990000    0.02411977720000
C         2.60229395510000   -0.55591632130000    0.01666270260000
C         3.75002136840000   -1.31901366120000    0.03450858880000
C         4.92245838360000   -0.55921465840000    0.01900748890000
C         4.70042338330000    0.79743599510000   -0.01090036220000
C         5.63466525040000    1.88901732160000   -0.03438936460000
C         6.96065356830000    1.76760735600000   -0.03253328670000
S         2.99454111580000    1.13587230850000   -0.01974714980000
S        -0.07452007840000    0.12235151180000   -0.00142045610000
S        -3.24547925820000    0.72514280030000   -0.01457732730000
H        -6.79449818440000    3.01840334120000   -0.06328461590000
H        -4.96417677460000    2.89051070910000   -0.05489477430000
H        -6.97746327550000    0.58067065570000   -0.02533891020000
H        -5.85760330840000   -1.76189877560000    0.01540699820000
H        -3.52178813650000   -2.87616180260000    0.04135411040000
H        -1.13847605500000   -3.32747886690000    0.06705470020000
H         1.43669486130000   -3.15656188680000    0.06867418350000
H         3.73843041210000   -2.39363453850000    0.05798854550000
H         5.90555241300000   -0.99377192920000    0.02940803320000
H         5.18544818580000    2.87354908550000   -0.05506601960000
H         7.44905980490000    0.80899433100000   -0.01240200440000
H         7.60014498400000    2.63209721130000   -0.05122008680000
