31
 energy: -50.044418096206 gnorm: 0.000175251815 xtb: 6.4.1 (23d549d)
C        -7.11680129440000    0.64614356210000    0.02517643520000
C        -6.43918017590000   -0.49894088650000    0.00186994020000
C        -5.00857693620000   -0.61142581870000   -0.00501534650000
C        -4.26829103080000   -1.76890871510000   -0.02367504380000
C        -2.88656929030000   -1.55370787450000   -0.02446841430000
C        -2.54555047770000   -0.22139254540000   -0.00669602090000
C        -1.24516987870000    0.35401585730000   -0.00199499320000
C        -0.90118893880000    1.68648687240000    0.00967492650000
C         0.47767891970000    1.90595573030000    0.01197315410000
C         1.21799032130000    0.74398617510000    0.00173394510000
C         2.63547425660000    0.60713818060000    0.00179782050000
C         3.58384863620000    1.60737099140000    0.00986639350000
C         4.89631054510000    1.12840749180000    0.00919956180000
C         4.98310291420000   -0.24382143420000    0.00016241590000
C         6.13784065760000   -1.09906901220000   -0.00315279950000
C         7.40296141720000   -0.68383914090000    0.00660485710000
S         3.39579523900000   -0.95466962530000   -0.00741394520000
S         0.17653986190000   -0.65069136890000   -0.01074949530000
S        -3.96704622760000    0.78338615060000    0.01142132260000
H        -8.19190283730000    0.66766069220000    0.02882595370000
H        -6.60991251890000    1.59683530260000    0.04092832720000
H        -6.96423613790000   -1.44582988340000   -0.01346753480000
H        -4.71830496030000   -2.74608424210000   -0.03605739830000
H        -2.15058607330000   -2.33840203610000   -0.03751790300000
H        -1.63674401030000    2.47151417520000    0.01661074550000
H         0.92267556890000    2.88411444790000    0.02070780570000
H         3.33248203210000    2.65246602420000    0.01636957470000
H         5.75746916970000    1.77164303880000    0.01471818700000
H         5.92050073150000   -2.15932781240000   -0.01378009910000
H         7.66413176200000    0.35995450210000    0.01763669250000
H         8.21993804520000   -1.38322375060000    0.00388733630000
