  54
        -60.19999501
 C         -6.8513674467       -0.1060132370        0.0892765742
 C         -5.6262822972       -0.8853247540       -0.3742052990
 C         -4.4641414287        0.0159574509       -0.7936185295
 C         -3.9029949275        0.9111593877        0.3122700318
 C         -3.4097368101        0.1725010862        1.5569403494
 C         -2.3036966684       -0.8522647894        1.2762396555
 C         -1.1291593391       -0.3006949755        0.5095562463
 C         -0.5763373376        0.9183826603        0.8788705703
 C          0.5020462989        1.4895182153        0.2208286900
 C          1.0159538127        2.8266635957        0.6686251553
 C          1.0640937912        0.8067318321       -0.8587534264
 C          2.2538385867        1.3373147719       -1.6091197993
 C          3.5788875332        0.9657997858       -0.9276893794
 C          3.8316731584       -0.5393546035       -0.9303481262
 C          5.1892317030       -0.9235340381       -0.3414984514
 C          5.2956080599       -0.6662179134        1.1601998348
 C          6.6123685869       -1.1846799547        1.7258499898
 C          0.5198538049       -0.4163527556       -1.2219377846
 C         -0.5563879071       -0.9904626220       -0.5606135921
 C         -1.0508350779       -2.3374463739       -1.0058175977
 H         -7.6800793782       -0.7838644865        0.2829878516
 H         -7.1610879368        0.6043325151       -0.6745525227
 H         -6.6422616465        0.4422507932        1.0041656766
 H         -5.9052890812       -1.5023664019       -1.2326187609
 H         -5.3053855014       -1.5619829223        0.4197077054
 H         -4.8004175383        0.6599077620       -1.6107094593
 H         -3.6583000260       -0.6053535804       -1.1874531306
 H         -4.6673738955        1.6286981062        0.6180027094
 H         -3.0706783461        1.4803480250       -0.1086248810
 H         -4.2440338606       -0.3461800055        2.0335865320
 H         -3.0510337346        0.9161092349        2.2717212773
 H         -2.7354824879       -1.6924801639        0.7355983828
 H         -1.9435731871       -1.2370951909        2.2367990098
 H         -1.0002564032        1.4490538512        1.7192626803
 H          0.4460933746        3.1870689128        1.5217906108
 H          0.9284516664        3.5590474053       -0.1340201924
 H          2.0643378279        2.7716299911        0.9557049408
 H          2.1917612231        2.4242493333       -1.6882946779
 H          2.2543728085        0.9275017739       -2.6219646273
 H          3.5671232180        1.3287714518        0.1001594041
 H          4.3961682214        1.4676542631       -1.4521560361
 H          3.7850654365       -0.9005306683       -1.9612138414
 H          3.0403120221       -1.0384040704       -0.3670834483
 H          5.9786581890       -0.3724682538       -0.8590851364
 H          5.3584315861       -1.9880772446       -0.5234812884
 H          4.4625667607       -1.1579037784        1.6680719214
 H          5.2212841096        0.4042236665        1.3586911787
 H          6.7005046941       -2.2575926441        1.5679521203
 H          6.6750902107       -0.9890311530        2.7939451019
 H          7.4544180695       -0.6980077857        1.2379878621
 H          0.9550908893       -0.9454847143       -2.0590226868
 H         -0.4298593452       -2.7179313471       -1.8133731544
 H         -2.0776687351       -2.2841065921       -1.3677562441
 H         -1.0189562708       -3.0520850345       -0.1840888488
