  20
        -25.66415021
 C          3.0560265678        0.3333053483       -0.0000085004
 C          1.5870683990        0.0470330638       -0.0000017943
 C          1.0855028452       -1.2476547383        0.0000004863
 N         -0.2029880281       -1.5314217193        0.0000058795
 C         -1.0939384959       -0.5499226832        0.0000064493
 C         -2.5287899733       -0.9853367098       -0.0000119431
 C         -0.7099045154        0.7959710320        0.0000122175
 C         -1.6902821102        1.9309422376       -0.0000021991
 C          0.6504423270        1.0732813925        0.0000061197
 H          3.6287688654       -0.5906582268        0.0000468774
 H          3.3293435641        0.9141086109        0.8803727094
 H          3.3293499044        0.9140037626       -0.8804572678
 H          1.7494281361       -2.1034328553        0.0000211955
 H         -2.5616752355       -2.0708387195       -0.0000820370
 H         -3.0457950072       -0.6154044497       -0.8840890482
 H         -3.0457748187       -0.6155269077        0.8841291510
 H         -2.7168315945        1.5807795707        0.0002986281
 H         -1.5367449684        2.5550183857       -0.8800039756
 H         -1.5363479535        2.5553874120        0.8796658573
 H          0.9832951867        2.1033750768        0.0000062396
