  15
        -20.15700773
 C         -2.6840088013        0.2413551007       -0.0000146287
 C         -1.2466618294       -0.1492373744        0.0000106089
 S         -0.0000000163        1.0575971828        0.0000068339
 C          1.2466618416       -0.1492373553        0.0000037743
 C          2.6840088163        0.2413551168       -0.0000112161
 C          0.7069213474       -1.3961704207       -0.0000017087
 C         -0.7069213283       -1.3961704131        0.0000053642
 H         -2.7842060984        1.3237332064        0.0004651447
 H         -3.1880998915       -0.1555298554        0.8814175074
 H         -3.1878544806       -0.1547056669       -0.8819622477
 H          2.7842060143        1.3237333006        0.0002917302
 H          3.1879002731       -0.1548577240       -0.8818634626
 H          3.1880541363       -0.1553778203        0.8815164460
 H          1.3004716662       -2.2936903802       -0.0000004390
 H         -1.3004716526       -2.2936903870        0.0000109673
