18
 energy: -26.985662210175 gnorm: 0.000124041806 xtb: 6.4.1 (23d549d)
C         3.67401202960000    0.63055497460000   -0.00647532680000
C         2.81022219130000   -0.37820171810000    0.00232080340000
C         1.36288838990000   -0.26335764020000    0.00198817190000
C         0.55491406170000   -1.40646057380000    0.00347643050000
N        -0.75965182320000   -1.35987942340000    0.00309555940000
C        -1.33375887780000   -0.15584283610000    0.00092155230000
C        -2.78821290950000   -0.12418104630000    0.00018662400000
C        -3.49088469730000    1.00226403150000   -0.00505671150000
N        -0.66250278250000    0.99772592640000   -0.00019707140000
C         0.65030961830000    0.94271741660000    0.00062913550000
H         4.73601604400000    0.45603895460000   -0.00554683880000
H         3.36366560450000    1.66131098860000   -0.01520318680000
H         3.17863976830000   -1.39735093810000    0.01002892360000
H         0.99311408840000   -2.39850830340000    0.00486453680000
H        -3.25666843130000   -1.09769822400000    0.00386933880000
H        -2.99269111370000    1.95677471290000   -0.00898210010000
H        -4.56732627890000    1.00202748750000   -0.00543783240000
H         1.15461717490000    1.90088748050000    0.00007190680000
