24
 energy: -42.127511091464 gnorm: 0.000109772607 xtb: 6.5.0 (unknown)
C           -1.14410583370000       -3.80696870560000       -0.13395046930000
C           -1.21880460510000       -2.53940147700000        0.25019197260000
C           -0.14115430770000       -1.56122930870000        0.10838932340000
C            1.18551889150000       -1.95792483030000        0.23232517070000
C            2.23314405560000       -1.05953768260000        0.15463250280000
C            1.96607135010000        0.28988622070000       -0.05273367140000
O            2.90416846480000        1.26827991430000       -0.14980810970000
C            4.26092954530000        0.91547811600000       -0.02955161410000
C            0.64240317090000        0.70628928740000       -0.18238713420000
C           -0.41007525870000       -0.19419418490000       -0.10490439050000
C           -1.78696683570000        0.25018998750000       -0.30364659440000
C           -2.27442180650000        1.45281510460000       -0.04544880150000
F           -1.63854483730000        2.49345111740000        0.47797933490000
F           -3.54450286120000        1.79113052640000       -0.26878406020000
H           -1.96366929140000       -4.48969474760000        0.01089068790000
H           -0.27151847710000       -4.20746197160000       -0.62212251770000
H           -2.12770181600000       -2.17907233590000        0.71419381120000
H            1.40439048750000       -2.99843625780000        0.41870111710000
H            3.24380152350000       -1.41988868380000        0.26279489190000
H            4.81723312080000        1.84494667470000       -0.13925242390000
H            4.56634676360000        0.21693158880000       -0.81533666320000
H            4.47762463030000        0.47878937060000        0.95069875280000
H            0.46566034550000        1.75345229440000       -0.36394712210000
H           -2.49016892890000       -0.46319656750000       -0.70569013110000
