  27
        -49.33858604
 C         -3.7542876428       -1.1825643752        0.9882872671
 C         -2.4293414725       -1.1973544651        1.0520527620
 C         -1.5353713020       -0.2082629767        0.4571357801
 C         -1.9706868617        1.0720253933        0.1259075538
 C         -1.0974255724        1.9783986433       -0.4452220607
 Cl        -1.6636290432        3.5522843220       -0.8833816677
 C          0.2285865173        1.6506241799       -0.6580554225
 C          0.6986685815        0.3909348134       -0.2952968755
 C          2.1272721984        0.1167284836       -0.4711371733
 C          2.9043514293       -0.4931902447        0.4089926405
 F          2.5652501476       -0.9657126321        1.5943589777
 F          4.2063857118       -0.6958412837        0.2115659698
 C         -0.1918162951       -0.5562036358        0.2273893762
 O          0.2226349149       -1.8287419556        0.5330756584
 C          0.5328831677       -2.6646865626       -0.5718282485
 C         -0.7030353630       -3.0444636369       -1.3803106093
 H         -4.3439789751       -1.9523943862        1.4552080441
 H         -4.3040402493       -0.4185405537        0.4649790046
 H         -1.9204528469       -2.0041272622        1.5612083302
 H         -2.9918208211        1.3593422819        0.3159382350
 H          0.9077469826        2.3763803342       -1.0768593636
 H          2.6055949103        0.4955718590       -1.3621406843
 H          0.9854651811       -3.5515788967       -0.1225301096
 H          1.2698558497       -2.1828742578       -1.2281597923
 H         -1.4404660782       -3.5230213107       -0.7412569983
 H         -0.4219199188       -3.7314507526       -2.1735755500
 H         -1.1527185213       -2.1583134522       -1.8242744478
