  36
        -61.85250932
 F         -5.4201400119       -1.1868683708       -1.2366161401
 C         -4.2208776858       -0.7934850770       -0.8130264895
 F         -3.3025942732       -1.6212927838       -1.2946105784
 C         -4.0406331277        0.2601254952       -0.0305801095
 C         -2.7931520915        0.7855320667        0.5035300449
 C         -1.5417212294        0.3024375826        0.1269531256
 C         -0.3840387464        0.8379145429        0.6799264491
 N          0.8652504985        0.3355099293        0.3009711272
 C          1.2249047481       -0.9995024605        0.2665055476
 C          2.5705410285       -1.1087017480       -0.1515087308
 C          3.1706220013       -2.3574101916       -0.2460528716
 C          2.4289468421       -3.4739005780        0.0837498088
 C          1.1107197902       -3.3547827711        0.5176889414
 C          0.4923956351       -2.1232287377        0.6201913840
 C          1.9544147439        1.0899710836       -0.0929610440
 C          3.0363346559        0.2294165215       -0.3873600223
 C          4.2444149425        0.7558189046       -0.8248808629
 C          4.3552973121        2.1239591540       -0.9722747832
 C          3.2755455657        2.9623109298       -0.7051195188
 C          2.0636779573        2.4618296488       -0.2683314198
 C         -0.4698295594        1.8715398718        1.6103534521
 C         -1.7098617593        2.3657195294        1.9710106628
 C         -2.8621264372        1.8309884128        1.4276023975
 H         -4.9434860135        0.7818759310        0.2522145206
 H         -1.4493192842       -0.4773284078       -0.6108377340
 H          4.1973732048       -2.4469946632       -0.5672923084
 H          2.8751285212       -4.4547685942        0.0143401598
 H          0.5592795426       -4.2446312955        0.7827327666
 H         -0.5243539876       -2.0434690733        0.9736569913
 H          5.0751163686        0.1038115855       -1.0488947809
 H          5.2866549570        2.5542248595       -1.3091118184
 H          3.3860312164        4.0274038029       -0.8462920944
 H          1.2276772948        3.1197261985       -0.0838267089
 H          0.4307837710        2.2686738452        2.0527731718
 H         -1.7773316506        3.1684968772        2.6898382221
 H         -3.8258095877        2.2190516788        1.7211225638
