  17
        -25.20776068
 C          3.0085850069        0.9888806459       -0.0054584434
 C          1.6856260568        1.1138696970        0.0046003894
 C          0.7517352498        0.0131776308        0.0024687376
 C          1.0451709186       -1.3806158597        0.0008213018
 C         -0.1511867019       -2.0216444266       -0.0005778479
 O         -1.1686374673       -1.1468523725       -0.0002148281
 C         -0.6341214756        0.0973964598        0.0017606014
 C         -1.5027732085        1.2434826762        0.0010834401
 C         -2.8321299652        1.1740732422       -0.0034045562
 H          3.6546399718        1.8495383528       -0.0030989034
 H          3.4937648074        0.0282444973       -0.0169772431
 H          1.2433264153        2.1012110206        0.0151947020
 H          2.0130594796       -1.8368878453        0.0012588980
 H         -0.4038470512       -3.0639141451       -0.0017433438
 H         -1.0013914044        2.2006939945        0.0041178901
 H         -3.3419659179        0.2260518698       -0.0067814828
 H         -3.4435295905        2.0589021601       -0.0039762544
  17
        -25.20579938
 C          2.0753602465        1.8611388317       -0.2836017567
 C          2.0034439842        0.6385764950        0.2279019555
 C          0.8717294203       -0.2592176323        0.1268025872
 C          0.9660473747       -1.6790450323        0.0921954699
 C         -0.3030802216       -2.1436255879       -0.0392861099
 O         -1.1822364995       -1.1317074798       -0.0737389255
 C         -0.4817779884        0.0238789744        0.0289790691
 C         -1.1925030557        1.2736622142        0.1012272406
 C         -2.4965837727        1.4042197265       -0.1287156360
 H          2.9604107716        2.4639131949       -0.1715053687
 H          1.2688496355        2.2947630759       -0.8492845943
 H          2.8619956665        0.2206893367        0.7397353531
 H          1.8651345543       -2.2588644759        0.1430261105
 H         -0.6979746783       -3.1379659614       -0.1126817269
 H         -0.5888656146        2.1247705216        0.3810612548
 H         -3.1021273299        0.5604944066       -0.4122754469
 H         -2.9922927272        2.3549494946       -0.0431433476
  17
        -25.20312880
 C          1.7675152674        1.9261824492       -0.3525698536
 C          1.7094501959        0.8011002950        0.3460405393
 C          0.7085523513       -0.2396307286        0.1891145765
 C          1.0169149649       -1.6280474002        0.2528504729
 C         -0.1339877363       -2.2929711583       -0.0244093591
 O         -1.1366543477       -1.4321189846       -0.2415607227
 C         -0.6430001444       -0.1735274794       -0.1069120066
 C         -1.6169214577        0.8860373817       -0.2170715545
 C         -1.4856441481        2.1363101020        0.2134043926
 H          2.5646511914        2.6359640220       -0.2112842303
 H          1.0275651481        2.1713130804       -1.0953786832
 H          2.4956087796        0.5625590203        1.0525392888
 H          1.9772733199       -2.0549751696        0.4596174116
 H         -0.3606200965       -3.3389128571       -0.0914478818
 H         -2.5505956163        0.5583916401       -0.6575012765
 H         -0.5875262570        2.4858246581        0.6906502432
 H         -2.2876736808        2.8455295821        0.1069525813
