  21
        -38.95954269
 C          2.7650602113        2.5861549859       -0.1180863942
 C          2.5446927397        1.2884072387        0.0519796991
 C          1.2501856309        0.6178327615        0.0273139839
 C          0.0377449579        1.2962962668        0.0168214613
 C         -1.1988044005        0.6562662508       -0.0053249529
 C         -2.4765486518        1.3578399411       -0.0165700638
 C         -2.6563888907        2.6698910803        0.0740757811
 C         -1.1912183430       -0.7418520621       -0.0193162918
 F         -2.3470483134       -1.4292694608       -0.0432861191
 C          0.0012728579       -1.4403453395       -0.0023124172
 F          0.0100550728       -2.7992415362       -0.0101601748
 C          1.2312710810       -0.7891288898        0.0236880871
 O          2.3848258108       -1.4932488589        0.0384601530
 H          3.7626533114        2.9879769491       -0.0843447618
 H          1.9776506828        3.2963785254       -0.3040103832
 H          3.3808638422        0.6222957906        0.2125962829
 H          0.0557959121        2.3723909273        0.0306099565
 H         -3.3413185754        0.7134320546       -0.1025367553
 H         -1.8437441693        3.3687675221        0.1714365826
 H         -3.6444278436        3.0953343546        0.0570811499
 H          2.1852821263       -2.4401386503        0.0315431953
  21
        -38.95864944
 C          3.0506613715        2.4618989819        0.0552892830
 C          2.7269233270        1.1799204414       -0.0607268804
 C          1.3821418217        0.6179644110       -0.0354247539
 C          0.2264773048        1.3886717404       -0.0430940707
 C         -1.0655368855        0.8623314568       -0.0199364904
 C         -2.1942492186        1.7850257037       -0.0301279163
 C         -3.4884765334        1.4940822718        0.0364344777
 C         -1.1740385708       -0.5309360703        0.0083149226
 F         -2.3644868743       -1.1539020139        0.0270987689
 C         -0.0374788434       -1.3203474907        0.0109665582
 F         -0.1465117901       -2.6750670064        0.0347571693
 C          1.2449190533       -0.7813873634       -0.0113425266
 O          2.3330098745       -1.5830040713       -0.0067704865
 H          4.0785680895        2.7785902424        0.0255373244
 H          2.3216249574        3.2424287419        0.1895280188
 H          3.5078639058        0.4413005306       -0.1753452444
 H          0.3285143494        2.4617370076       -0.0737979519
 H         -1.8964742077        2.8242970350       -0.0968686820
 H         -3.8698402222        0.4923044141        0.1090319520
 H         -4.2253957353        2.2791766585        0.0214224826
 H          2.0516962103       -2.5087403589        0.0103291351
  21
        -38.95773462
 C          3.7385633882        1.2104555335       -0.0092186433
 C          2.4840771426        1.6460002304       -0.0102744927
 C          1.2661298869        0.8462376372       -0.0053233492
 C          0.0425646501        1.5110332661        0.0044042096
 C         -1.2044734713        0.8870721875        0.0103768937
 C         -2.4030849448        1.7161777318        0.0206379166
 C         -3.6701797803        1.3180377536        0.0148423830
 C         -1.1965934228       -0.5099048054        0.0063512798
 F         -2.3288658959       -1.2333749036        0.0127158670
 C          0.0043266399       -1.1952744616       -0.0036873277
 F          0.0091721852       -2.5554746048       -0.0079689066
 C          1.2447517935       -0.5600689531       -0.0097980359
 O          2.3722731551       -1.3032035154       -0.0200782449
 H          4.5605935942        1.9064209178       -0.0125715392
 H          3.9905283445        0.1668299285       -0.0047292587
 H          2.2998785423        2.7134559618       -0.0142111922
 H          0.0600157732        2.5912303929        0.0075661036
 H         -2.1893800199        2.7779461397        0.0332441976
 H         -3.9684665623        0.2859446286        0.0015034638
 H         -4.4692106799        2.0398957809        0.0233534403
 H          2.1360949732       -2.2428191376       -0.0231186116
