  23
        -36.36172384
 C         -4.0245950221        0.3094966112       -0.0223469021
 C         -3.2407348151       -0.7572632189       -0.1163758638
 C         -1.7849811760       -0.6951799496       -0.0443028222
 C         -1.0199281899       -1.8672055332       -0.0730092257
 C          0.3551057216       -1.7578118035       -0.0447574663
 C          0.9457806014       -0.4985638722        0.0179996832
 C          2.4355665758       -0.4287946054       -0.0143933355
 N          2.9416998852        0.5000748709       -0.8649135138
 O          3.1443310119       -1.1658731064        0.6358777974
 C          0.0989163091        0.6210301994        0.1175272350
 C          0.6203847424        1.9719681647        0.3288864264
 C         -0.0989558780        3.0650827253        0.1099445271
 N         -1.2203870928        0.5010212052        0.0659847201
 H         -5.0971786504        0.2376454515       -0.0763997627
 H         -3.5971979587        1.2873686748        0.1163958155
 H         -3.6583869794       -1.7467039087       -0.2485235787
 H         -1.4999587083       -2.8325660941       -0.1200596547
 H          0.9898281567       -2.6314541681       -0.0782203365
 H          2.3543314124        1.0764802675       -1.4402706515
 H          3.9412308795        0.5680488240       -0.9634103771
 H          1.6345886669        2.0379655121        0.6983803660
 H         -1.1076710792        2.9905013229       -0.2577458773
 H          0.2926416051        4.0514310645        0.2900591710
