  20
        -31.22619624
 C         -4.1072366301       -0.2484742486        0.0753042793
 C         -3.0344013396        0.5242464690       -0.0477602731
 C         -1.6481256574        0.0811774009       -0.0318819042
 C         -1.2658187962       -1.2677667282        0.0167311928
 N         -0.0174681242       -1.6687653286        0.0273471024
 C          0.9531827702       -0.7584049277       -0.0089171530
 C          2.2815991858       -1.2587460091        0.0129591068
 N          3.3600762466       -1.6471270019        0.0283013288
 C          0.7135899059        0.6301481544       -0.0616597134
 C          1.8291939052        1.5663658415       -0.1043591149
 C          1.7520012290        2.8674585549        0.1482906912
 C         -0.6222747370        1.0231502874       -0.0782961687
 H         -5.0990555547        0.1690478929        0.0545838998
 H         -4.0465963174       -1.3152553929        0.2041249800
 H         -3.1629030391        1.5937228616       -0.1656126513
 H         -1.9989654862       -2.0612513314        0.0385268533
 H          2.7880604238        1.1225690004       -0.3403018414
 H          0.8314116720        3.3564020913        0.4196353173
 H          2.6246770143        3.4953157751        0.1052030400
 H         -0.8708444351        2.0729255055       -0.1410496811
  20
        -31.22616972
 C         -3.7537071925        1.1181423368        0.0340121436
 C         -3.1187463571       -0.0463842283       -0.0282741693
 C         -1.6763175711       -0.2419561232       -0.0224268848
 C         -1.1609098180       -1.5460491905        0.0257929613
 N          0.1198785859       -1.8280339325        0.0303492541
 C          0.9942076343       -0.8257053964       -0.0116119011
 C          2.3664855810       -1.1896265626        0.0001904442
 N          3.4784572257       -1.4680993067        0.0065828175
 C          0.6162165035        0.5323367150       -0.0609426262
 C          1.6340764455        1.5745070384       -0.1075980708
 C          1.4359629701        2.8545854479        0.1829266333
 C         -0.7505546786        0.7975967613       -0.0730194660
 H         -4.8286630639        1.1681787398        0.0291967480
 H         -3.2398163767        2.0622749827        0.0970396174
 H         -3.6942756729       -0.9623297103       -0.0779527250
 H         -1.8240239582       -2.4011478267        0.0584109389
 H          2.6254190730        1.2333555173       -0.3775191936
 H          0.4794770321        3.2415356822        0.4923781177
 H          2.2406818110        3.5672140969        0.1362810594
 H         -1.0889171755        1.8193498579       -0.1447328226
  20
        -31.22516307
 C         -4.1773555342       -0.4834553988        0.0622540794
 C         -3.1769251991        0.3888775949        0.0259922773
 C         -1.7586325508        0.0654105377       -0.0063297748
 C         -1.2618721715       -1.2360443216       -0.1701336352
 N          0.0151954820       -1.5296917122       -0.1601483931
 C          0.9121309329       -0.5539558612       -0.0198065316
 C          2.2583739452       -0.9991988852        0.0548200997
 N          3.3274468630       -1.4046487558        0.1390033535
 C          0.5541438752        0.8033451076        0.0964617978
 C          1.5081459717        1.9010526835        0.1969951686
 C          2.7310660964        1.9182788074       -0.3166568637
 C         -0.8117384222        1.0787996229        0.1224719131
 H         -5.2020298436       -0.1550874630        0.0876614669
 H         -4.0215290830       -1.5484185543        0.0741576153
 H         -3.3969388074        1.4498409649        0.0310423869
 H         -1.9229446481       -2.0790349967       -0.3118891422
 H          1.1267618674        2.7792121783        0.7047470088
 H          3.1413780879        1.0880979159       -0.8647086172
 H          3.3654076956        2.7817259296       -0.2120679862
 H         -1.1385054699        2.1043345071        0.2359159865
  20
        -31.22512671
 C         -3.9521220232        0.8990758061       -0.0547146772
 C         -3.2223308389       -0.2101617651       -0.0633578993
 C         -1.7691185702       -0.2813226750       -0.0289506708
 C         -1.1423102152       -1.5240205806        0.1456817122
 N          0.1577028072       -1.6901047851        0.1635499709
 C          0.9498588490       -0.6266453678        0.0347783790
 C          2.3371175488       -0.9273566052       -0.0060358643
 N          3.4445820937       -1.2186986458       -0.0614004322
 C          0.4539642100        0.6842646655       -0.1095213929
 C          1.2942496930        1.8714484531       -0.2156785809
 C          2.4936668999        2.0255769446        0.3292727534
 C         -0.9314950099        0.8226758897       -0.1637251535
 H         -5.0273643099        0.8599799979       -0.0749795714
 H         -3.5176714635        1.8836275658       -0.0189396946
 H         -3.7177420232       -1.1727169065       -0.0826507465
 H         -1.7273429291       -2.4266098149        0.2680968946
 H          0.8403626330        2.6937932950       -0.7562041269
 H          2.9695140009        1.2551113127        0.9105575184
 H          3.0404493636        2.9461778140        0.2180986166
 H         -1.3486631811        1.8088865118       -0.3075213518
