24
 energy: -33.660257982121 gnorm: 0.000047595118 xtb: 6.4.1 (23d549d)
C        -3.54101524820000    0.43710803400000    0.76527495260000
C        -2.50283322760000   -0.13012608970000    0.16672251370000
C        -1.18532012500000    0.49179924300000    0.01654603740000
C        -1.07835811140000    1.86301560110000   -0.18005643920000
C         0.15846456560000    2.44561620450000   -0.38827337610000
C         1.29593092380000    1.66863276160000   -0.35529162730000
C         1.21725679340000    0.29173569470000   -0.13553536810000
O         2.43422095750000   -0.33289243520000   -0.08655048950000
C         2.62709005820000   -1.47187785220000    0.71824421330000
C        -0.03315569580000   -0.31670809140000    0.01358351230000
C        -0.21209370430000   -1.77506360460000    0.13067190480000
C         0.17829116580000   -2.63177056950000   -0.80016988930000
H        -4.49188543400000   -0.06229646510000    0.84136469710000
H        -3.47880650230000    1.41355975450000    1.21606477730000
H        -2.60089157060000   -1.12598818190000   -0.24634065030000
H        -1.97283371410000    2.46574397340000   -0.20716552730000
H         0.23625331890000    3.50805756080000   -0.56396043920000
H         2.27512986490000    2.09978821830000   -0.49262289440000
H         3.65968509480000   -1.41905195530000    1.06891211420000
H         2.48806605510000   -2.39588038930000    0.14913896350000
H         1.95353701150000   -1.47968038930000    1.57826554770000
H        -0.74142320820000   -2.12410790150000    1.01004457190000
H         0.67704911620000   -2.29997002270000   -1.69662410180000
H         0.00849187950000   -3.69164629700000   -0.70778664000000
