  21
        -34.52564162
 C          3.5469811973       -1.2022056233        0.0002997364
 C          2.4197119321       -1.9072885202       -0.0005999647
 C          1.0761314607       -1.3632810464       -0.0001628031
 C         -0.0172474547       -2.2107880385        0.0002532364
 C         -1.3426975030       -1.7657274780        0.0006763732
 C         -1.6762019549       -0.4259549118        0.0006060098
 C         -3.0270301005        0.1038649081        0.0009767726
 C         -4.1518757423       -0.6048438997       -0.0014973615
 C         -0.5857298309        0.4812561569        0.0002975828
 N         -0.6705970348        1.8112744396        0.0002832023
 S          0.8122384133        2.4263403378       -0.0001904464
 N          1.6379728305        1.0472117100       -0.0004027200
 C          0.7814327808        0.0255531961       -0.0001221140
 H          4.5084154502       -1.6873343188       -0.0001434719
 H          3.5356151664       -0.1267755979        0.0014154370
 H          2.4618792284       -2.9903191986       -0.0016672410
 H          0.1609975495       -3.2771849282        0.0003615580
 H         -2.1272524693       -2.5065574658        0.0011296269
 H         -3.0708451022        1.1848274859        0.0030973319
 H         -4.1639342729       -1.6815645193       -0.0041182000
 H         -5.1138464056       -0.1224359680       -0.0010253895
