  24
        -28.55979078
 C         -2.5006038127        1.4642206707        0.0012879103
 C         -1.2123909113        0.6983938477        0.0003028979
 C          0.0013188064        1.3662806031        0.0000281060
 C          1.2218259932        0.7031243374       -0.0002861735
 C          2.4944164082        1.5003071852       -0.0012870308
 C          1.2230069332       -0.6906452823        0.0002465835
 C          2.4835309277       -1.5079741862        0.0013011827
 C          0.0056175354       -1.3602567385       -0.0000243281
 C         -1.2104544173       -0.6981514334       -0.0002787592
 C         -2.4960662224       -1.4683530470       -0.0012991070
 H         -2.3126261118        2.5350033849        0.0020631274
 H         -3.0941946641        1.2163235100        0.8810507701
 H         -3.0949578960        1.2176950413       -0.8783336540
 H         -0.0016382108        2.4482094976        0.0000838790
 H          2.2737976840        2.5649939801       -0.0028098906
 H          3.0925731697        1.2749522114       -0.8837339404
 H          3.0926131072        1.2774751075        0.8817724846
 H          3.3740449697       -0.8890136890        0.0014853280
 H          2.5112369380       -2.1512426976       -0.8779170893
 H          2.5101994631       -2.1501567444        0.8813612469
 H          0.0132208527       -2.4422499598       -0.0000935532
 H         -2.3041163166       -2.5384226624       -0.0021328987
 H         -3.0904974470       -1.2224367667       -0.8810313836
 H         -3.0912222589       -1.2239041852        0.8783394697
