  20
        -38.34410891
 C          3.3716508675       -1.5058590853       -0.0003120505
 C          2.2297676876       -0.5433520737        0.0000760770
 C          0.9068851764       -0.9716467400        0.0001032657
 C         -0.1095126260       -0.0235585985        0.0000723139
 C         -1.5419183215       -0.4884739124        0.0000398724
 F         -1.6574251364       -1.8234321269        0.0008323552
 F         -2.2268447539       -0.0568639032        1.0762594660
 F         -2.2262829695       -0.0581862298       -1.0770796206
 C          0.2050674354        1.3351955562       -0.0000105032
 C         -0.7977988259        2.4435317856       -0.0003284325
 C          1.5687141227        1.6388335249        0.0002220012
 N          2.5351462727        0.7492116649        0.0002527864
 H          3.0197307280       -2.5330219761        0.0008091765
 H          3.9940787720       -1.3348053070        0.8755631294
 H          3.9922207537       -1.3361911729       -0.8777939089
 H          0.6707990349       -2.0241206882        0.0001058876
 H         -1.8214400191        2.0856900541       -0.0014871214
 H         -0.6505179890        3.0692877270       -0.8797119287
 H         -0.6521908512        3.0683547911        0.8800000500
 H          1.8881039203        2.6731283133        0.0004098330
