  21
        -34.44492363
 C          3.4860876172       -1.0887931087       -0.0013413890
 O          2.0686551701       -1.0827319608       -0.0012614956
 C          1.4898676028        0.1314147231        0.0009134209
 O          2.1246224385        1.1613795248        0.0023536263
 C          0.0340349229        0.0329547585        0.0006916392
 C         -0.7535123452       -1.1600749226        0.0010158884
 C         -2.0502812615       -0.7608124862        0.0002071904
 C         -3.3261106308       -1.5226463736        0.0001826426
 O         -2.1155121288        0.5975818568       -0.0006581310
 C         -0.8617901857        1.0780245385       -0.0003365811
 C         -0.6511285450        2.5449707490       -0.0013812090
 H          3.7863906069       -2.1332738715       -0.0249202043
 H          3.8688487010       -0.5997438500        0.8972911839
 H          3.8689877677       -0.5589595812       -0.8764333647
 H         -0.3783306195       -2.1615481529        0.0017945146
 H         -3.1151175486       -2.5873735021       -0.0022697334
 H         -3.9179717103       -1.2723874835       -0.8793229508
 H         -3.9158842316       -1.2761805620        0.8821864896
 H         -1.1077852289        2.9929242682        0.8803626597
 H         -1.1117140340        2.9922286015       -0.8814493900
 H          0.4152283942        2.7474583471       -0.0035517663
