  38
        -52.54198746
 C          4.2449199927       -2.7413551852        0.9501631092
 C          3.7209027636       -1.5333883601        1.1210556662
 C          2.6903987995       -0.9046886825        0.3043326051
 C          2.1727010702       -1.4857007550       -0.8546822590
 C          1.1848725556       -0.8520126413       -1.5769001100
 C          0.6858448148        0.3801023107       -1.1738270764
 O         -0.2966121458        0.9692002980       -1.9436845557
 C         -1.5471823458        1.1578517482       -1.3134227291
 C         -2.2650517418       -0.1813925453       -1.0488710458
 C         -3.7355168844        0.0285748499       -0.6603421420
 C         -3.8576796086        0.5424344031        0.7727999340
 C         -3.1164838678       -0.4137238096        1.7036966280
 C         -1.6702167367       -0.5542579510        1.2318240744
 O         -1.5857072353       -0.9910511584       -0.1075284495
 C          1.2192098621        1.0086889288       -0.0387972469
 C          0.7893347226        2.3558554326        0.3424420496
 C          0.6929636597        2.8013903284        1.5877913077
 C          2.2041252681        0.3443119844        0.6819837880
 H          5.0040916086       -3.1206377626        1.6126735963
 H          3.9430514472       -3.4006242272        0.1548218877
 H          4.0679079228       -0.9267813003        1.9494495693
 H          2.5398440580       -2.4420771976       -1.1917239752
 H          0.7732638830       -1.3052456702       -2.4653484387
 H         -2.1362583738        1.7476694492       -2.0198240246
 H         -1.4355266794        1.7232485332       -0.3818442243
 H         -2.2105632432       -0.7639980743       -1.9769554543
 H         -4.2473955072       -0.9333823134       -0.7328796681
 H         -4.2034812480        0.7190530899       -1.3628534518
 H         -4.9104052144        0.6068764921        1.0546645209
 H         -3.4279102062        1.5432320088        0.8524887664
 H         -3.5983478662       -1.3930131515        1.6764358044
 H         -3.1298066518       -0.0480836072        2.7310101428
 H         -1.1412820825       -1.3195214999        1.8047077630
 H         -1.1414440234        0.3998293563        1.3678864891
 H          0.5441293788        3.0082439231       -0.4878300753
 H          0.9039926601        2.1722260796        2.4371564885
 H          0.3875998096        3.8106550660        1.8067894558
 H          2.6245411763        0.8329770913        1.5498800649
