  26
        -40.96234139
 C         -1.5443004823       -3.7737143497       -0.0563790658
 C         -2.1258670208       -2.5881025965        0.0765203335
 C         -1.4604530336       -1.2906492180        0.0219740526
 C         -2.2361539898       -0.1317819647        0.0116564163
 C         -1.6744164185        1.1426185756       -0.0570410076
 C         -2.4715394361        2.3645922319       -0.0809806697
 C         -3.7796716575        2.4611858684        0.1219139560
 C         -0.2822172372        1.2448184229       -0.1092770511
 C          0.4858611891        0.1011333206       -0.0841770901
 S          2.2726541975        0.2537910754       -0.0920868504
 C          2.6750406800        0.3920906815        1.6772150534
 O          2.8477651160       -0.9679115377       -0.5868059089
 O          2.6405168311        1.4874970415       -0.7323137315
 C         -0.0705163172       -1.1564969749       -0.0200607568
 H         -2.1163317589       -4.6842509733       -0.0078946244
 H         -0.4879461619       -3.8880046425       -0.2275014089
 H         -3.1970903635       -2.5396439363        0.2291111802
 H         -3.3106767643       -0.2332831122        0.0385999810
 H         -1.9010473998        3.2636700554       -0.2765239732
 H         -4.4036444368        1.6102802722        0.3351236841
 H         -4.2804692321        3.4131735806        0.0868083593
 H          0.2105285242        2.2020931826       -0.1825009703
 H          2.3377610083       -0.5109275127        2.1687678335
 H          2.1729651792        1.2672690491        2.0680909576
 H          3.7491318661        0.4968420006        1.7652523116
 H          0.5884819086       -2.0088349780       -0.0200120233
  26
        -40.96204632
 C         -2.9805907129       -3.2144740753        0.1740552557
 C         -1.7330393935       -2.8122122277       -0.0343055195
 C         -1.2541903693       -1.4335902629       -0.0505532440
 C         -2.1105528428       -0.3337480313       -0.0497236133
 C         -1.6346389586        0.9761208121       -0.0735985538
 C         -2.5157109813        2.1397480722       -0.0808779285
 C         -3.8233953301        2.1425854770        0.1458171693
 C         -0.2521719887        1.1786431402       -0.1004895697
 C          0.5956539829        0.0932070504       -0.0980753565
 S          2.3668222350        0.3730680720       -0.0879204171
 C          2.7539714223        0.4506832251        1.6883401185
 O          3.0299414955       -0.7768077823       -0.6405888790
 O          2.6447742659        1.6611819317       -0.6631407493
 C          0.1235054498       -1.2004771650       -0.0767733416
 H         -3.2373906144       -4.2596201138        0.1712901067
 H         -3.7921227683       -2.5323306642        0.3613852897
 H         -0.9612927918       -3.5532757619       -0.1992417314
 H         -3.1750807332       -0.5015846497       -0.0575362190
 H         -2.0131562128        3.0776888423       -0.2799741554
 H         -4.3804640382        1.2486864950        0.3686488004
 H         -4.3915422697        3.0563647338        0.1234547462
 H          0.1714404672        2.1703134444       -0.1414382986
 H          2.4799038172       -0.4969498070        2.1329319686
 H          2.1907103314        1.2681500484        2.1188118898
 H          3.8178346445        0.6258485809        1.7878458314
 H          0.8322765663       -2.0138990249       -0.0998865151
  26
        -40.95870102
 C         -1.3351170931       -3.8936656150       -0.6387535741
 C         -2.0218426824       -2.7705070235       -0.4694524962
 C         -1.4626534725       -1.4420263436       -0.2462837087
 C         -2.3274986086       -0.3619820806       -0.0706847259
 C         -1.8686910561        0.9356574948        0.1471572826
 C         -2.8428920293        2.0079028774        0.3202611743
 C         -2.5839433820        3.2952178571        0.5148460008
 C         -0.4877738879        1.1530845312        0.1904871998
 C          0.3693536781        0.0897099083        0.0171536560
 S          2.1636201842        0.2436274001        0.0513111896
 C          2.5558518299        1.9963697098        0.3437360019
 O          2.6487248376       -0.5147048699        1.1732088646
 O          2.6602038082       -0.1127569404       -1.2507795891
 C         -0.0905064003       -1.1925111786       -0.1988515543
 H         -1.8346154198       -4.8338060498       -0.7980139508
 H         -0.2597106629       -3.9260860982       -0.6257562115
 H         -3.1042822065       -2.8048879287       -0.4917338447
 H         -3.3941542647       -0.5375438681       -0.1049809642
 H         -3.8753695522        1.6840769317        0.2782191945
 H         -1.5848374665        3.6925219281        0.5660627287
 H         -3.3786219857        4.0115712598        0.6314746527
 H         -0.1022889040        2.1440550885        0.3589808136
 H          2.1507582362        2.2887494722        1.3035262209
 H          2.1552930847        2.5839029327       -0.4718235530
 H          3.6370195568        2.0618590271        0.3573058057
 H          0.6378122789       -1.9757564361       -0.3269443259
  26
        -40.95834611
 C         -2.9835644579       -3.1707311270       -0.5582065657
 C         -1.7234508994       -2.7572177703       -0.5021164540
 C         -1.2602085925       -1.3961086151       -0.2536396768
 C         -2.1250871974       -0.3218170447       -0.0533205238
 C         -1.6549784537        0.9673656477        0.1824702216
 C         -2.5399811673        2.1083490669        0.3950260371
 C         -3.8672357455        2.0961000753        0.4092239206
 C         -0.2717352630        1.1805393350        0.2167368399
 C          0.5868633490        0.1228032662        0.0190093320
 S          2.3810241087        0.2741016355        0.0397675963
 C          2.7751912099        2.0216730304        0.3577010378
 O          2.8745878625       -0.5024605317        1.1452224195
 O          2.8651454386       -0.0603960590       -1.2726468044
 C          0.1144084635       -1.1517492124       -0.2138929749
 H         -3.2226853206       -4.2026247223       -0.7487411924
 H         -3.8246451064       -2.5132530484       -0.4196604591
 H         -0.9276989753       -3.4758850374       -0.6498246633
 H         -3.1882823525       -0.4928904179       -0.0829677176
 H         -2.0260508598        3.0481338434        0.5559639020
 H         -4.4473482825        1.2022789851        0.2588489768
 H         -4.4305583163        2.9978217274        0.5763018668
 H          0.1068890856        2.1742579833        0.3982454945
 H          2.3780192938        2.2981262347        1.3254652747
 H          2.3672205057        2.6226044487       -0.4442814331
 H          3.8564188816        2.0877130069        0.3631435203
 H          0.8295724396       -1.9458085469       -0.3626936483
