  20
        -27.54940839
 C          3.1521329772       -0.3503357621       -0.0059608906
 C          1.9272083295       -0.8144071615       -0.2363301907
 C          0.7178851150       -0.0534414372       -0.0762540999
 S          0.7736998051        1.6790927794        0.0860879144
 C         -0.9424160912        1.7697062658        0.0918325079
 C         -1.5378488739        0.5559258506       -0.0306893924
 C         -3.0158912728        0.3456064128       -0.0463360084
 C         -0.5852427114       -0.5053720727       -0.1167657196
 C         -0.9920304443       -1.8983183426       -0.2152083059
 C         -0.3987048728       -2.9169573823        0.3935738236
 H          4.0255101514       -0.9584832385       -0.1616389907
 H          3.3158663831        0.6536913085        0.3498390244
 H          1.7836516651       -1.8294124036       -0.5838693667
 H         -1.4146802703        2.7277259532        0.1879181858
 H         -3.5343446468        1.2904548117        0.0953300923
 H         -3.3098502710       -0.3406401219        0.7468806785
 H         -3.3296576814       -0.0831927488       -0.9980812816
 H         -1.8774894823       -2.0749371686       -0.8138947259
 H          0.4479800698       -2.7794779513        1.0447206738
 H         -0.7577425691       -3.9259461483        0.2799772721
