42
 energy: -59.770212401724 gnorm: 0.000080017859 xtb: 6.4.1 (23d549d)
C        -1.66514541750000    4.99454350580000   -4.32962433790000
C        -0.85570005880000    4.06228427320000   -3.84290471470000
C        -0.94748172740000    3.41925778910000   -2.53588225710000
C        -1.86529143870000    3.81270541050000   -1.56350615380000
C        -1.92090089890000    3.17404838240000   -0.33116128700000
C        -2.86796260670000    3.55597713140000    0.71183333220000
C        -3.88244674120000    4.40341663590000    0.59310587480000
C        -1.03593019650000    2.12535455070000   -0.06374469470000
C        -0.11660934170000    1.72085267340000   -1.01998941290000
O         0.78657838550000    0.71220347160000   -0.85921789850000
C         0.80908403020000    0.00523612360000    0.36262565880000
C         1.90945619910000   -1.04583084690000    0.25310394890000
C         2.18281840160000   -1.77332249970000    1.56921177490000
C         0.99025640470000   -2.54996700510000    2.13834950120000
C         0.40095248420000   -3.61454084280000    1.21029130810000
C         1.35684220040000   -4.77380376930000    0.88857130560000
C         1.64057631310000   -5.57551564740000    2.14400428300000
O         0.93181733130000   -6.45091994560000    2.54598765290000
O         2.74912580400000   -5.22558100310000    2.82427562960000
C        -0.07758269300000    2.37232628010000   -2.25038351820000
H        -1.51522105730000    5.40741799850000   -5.31250872050000
H        -2.50632431530000    5.38278526330000   -3.78165376480000
H        -0.03499953460000    3.71073389650000   -4.45625638650000
H        -2.53156075870000    4.63419489630000   -1.76449413280000
H        -2.70584064130000    3.06954654210000    1.66656014240000
H        -4.11440825130000    4.91075839850000   -0.32726088960000
H        -4.53159620750000    4.61856251770000    1.42453887460000
H        -1.08662016890000    1.63925725920000    0.89864380050000
H        -0.16593116210000   -0.46804562830000    0.53960012120000
H         1.02680912420000    0.68930307700000    1.19567497380000
H         2.82127741420000   -0.53686805790000   -0.06574971150000
H         1.64252884680000   -1.75365527910000   -0.53216507660000
H         2.49481399650000   -1.04056675040000    2.31733532450000
H         3.03052700690000   -2.44440668660000    1.40930988690000
H         0.19751544900000   -1.84133549190000    2.38394473670000
H         1.29419177270000   -3.01817309280000    3.07772971560000
H         0.08553603800000   -3.15315137310000    0.27379795250000
H        -0.48728535910000   -4.03469689550000    1.68635182380000
H         2.27951009740000   -4.40107153350000    0.43990051970000
H         0.86570582560000   -5.43841764330000    0.17669142700000
H         3.22297641220000   -4.49332921930000    2.40891155140000
H         0.64746873590000    2.04213019490000   -2.97837806620000
