  14
        -25.29231686
 C         -3.4882240680       -0.9405659577       -0.0043284262
 C         -3.1325437828        0.3429048057        0.0026912518
 C         -1.7827562659        0.8589564989        0.0039028343
 C         -0.6543018311        0.1297756524        0.0004339604
 C          0.6542802218        0.7229021319        0.0021571636
 C          1.7805459624        0.0181779330       -0.0002005440
 F          1.8668310774       -1.3082086226       -0.0044793458
 F          3.0017368722        0.5441466421        0.0013359098
 H         -4.5235635916       -1.2338549474       -0.0045093808
 H         -2.7687711012       -1.7408578854       -0.0100546774
 H         -3.9085909816        1.0978604305        0.0080883119
 H         -1.6958197775        1.9383059255        0.0084038497
 H         -0.6904925728       -0.9493645305       -0.0037185558
 H          0.7425598093        1.7984067901        0.0055548721
