23
 energy: -36.719048734463 gnorm: 0.000136973464 xtb: 6.4.1 (23d549d)
C        -3.87859662530000    1.28301070070000   -0.03943080970000
C        -3.34155399150000    0.07604503200000   -0.17348236580000
C        -1.92426946880000   -0.25675904950000   -0.11541411200000
C        -1.53684124490000   -1.59784705350000   -0.04957543130000
C        -0.20847741380000   -1.95279784350000    0.03076449480000
C         0.80514495440000   -0.99268458290000    0.04571720050000
C         2.20752130460000   -1.38507144960000    0.12036081840000
C         2.64777232200000   -2.48275144890000    0.72293294700000
C         0.42556829970000    0.35696958580000   -0.06198628650000
C         1.44781973450000    1.44385166570000   -0.04050980590000
O         2.42610445410000    1.44303437130000    0.65325171560000
O         1.20128476040000    2.47965107770000   -0.87104895770000
C        -0.91768867090000    0.70570906740000   -0.13421030560000
H        -4.94367889460000    1.42843675250000   -0.09075273780000
H        -3.29368458350000    2.16928565810000    0.13888469490000
H        -3.99447489800000   -0.77458146970000   -0.32589150700000
H        -2.29606504660000   -2.36699347100000   -0.05518945540000
H         0.06089889780000   -2.99719768230000    0.06712935180000
H         2.91774572990000   -0.70307042630000   -0.32448575080000
H         1.99008428630000   -3.16660490800000    1.23345923730000
H         3.69634928950000   -2.72223146460000    0.75102434230000
H         0.40393546130000    2.34239231740000   -1.40021709610000
H        -1.19438119060000    1.75049774430000   -0.17327228060000
