  23
        -33.59484634
 C         -2.7558609243        2.2153428253       -0.0595203542
 C         -2.5925245016        0.8975635046       -0.0437555255
 C         -1.2859079918        0.2551653366       -0.0204112747
 N         -0.2108372297        1.0408575221       -0.0832627306
 C          1.0042915028        0.5183432105       -0.0802021153
 C          2.1030451900        1.4753732460       -0.0766955301
 C          3.3181842899        1.2797181803        0.4224594627
 C          1.1507134392       -0.8920568006       -0.1158521307
 N          2.3535371256       -1.5265866688       -0.2348363970
 N          0.0828499365       -1.6788815438       -0.0126641490
 C         -1.1242542479       -1.1386240401        0.0741071391
 C         -2.2603771107       -2.0954734365        0.2512653343
 H         -3.7321113139        2.6686023313       -0.0784729946
 H         -1.9027580429        2.8710986362       -0.0526233444
 H         -3.4479829430        0.2372569065       -0.0474378838
 H          1.8316872717        2.4402179712       -0.4846974253
 H          3.6055426289        0.3643292018        0.9114758207
 H          4.0597353986        2.0605796453        0.4002980224
 H          3.1039923371       -1.0168791893       -0.6714553066
 H          2.2861310033       -2.5091671546       -0.4511431390
 H         -1.8615608408       -3.1015376674        0.3475133515
 H         -2.9288734085       -2.0598615818       -0.6079709401
 H         -2.8328863163       -1.8483196493        1.1435788002
  23
        -33.59212740
 C         -3.5587640763        1.1280486909       -0.3155535485
 C         -2.3481957680        1.3428307691        0.1836884988
 C         -1.1690634465        0.4887631430        0.0984706761
 N         -0.0194746308        1.1580422245        0.2199410417
 C          1.1428645712        0.5323063972        0.1442821743
 C          2.3239495329        1.3829008734        0.2260398509
 C          3.5057477952        1.1465126334       -0.3314972770
 C          1.1578768763       -0.8808063778        0.0364048091
 N          2.2992793953       -1.6290196776        0.0135566077
 N          0.0154009566       -1.5562719150       -0.0451347985
 C         -1.1429881217       -0.9085534529       -0.0501023234
 C         -2.3521830950       -1.7811231017       -0.1476457712
 H         -4.3382904742        1.8623928286       -0.1978430901
 H         -3.8228371625        0.2504764750       -0.8765635485
 H         -2.1375317435        2.2808749878        0.6819288801
 H          2.1485610005        2.3098825318        0.7561656609
 H          3.6996732696        0.2794804697       -0.9401255702
 H          4.3149796567        1.8510115774       -0.2363125244
 H          3.1175091337       -1.2373072977        0.4505558619
 H          2.1488457166       -2.6182540732        0.1392209908
 H         -2.0612883223       -2.8052910787        0.0724172297
 H         -2.7582274705       -1.7521475198       -1.1579161144
 H         -3.1215343720       -1.4553890170        0.5488016506
