  21
        -32.50375125
 C          3.1829064854        1.3602373874        0.1673807697
 C          2.0058305378        0.4384626787        0.0718939830
 C          2.1656636421       -0.9348533227       -0.0524154439
 C          1.0664944139       -1.7704468670       -0.1316991546
 C         -0.2300728794       -1.2754742507       -0.0886735721
 C         -1.3981278555       -2.2044346352       -0.1624604920
 C         -0.3981057949        0.1118253600        0.0129753830
 C         -1.7614956564        0.7142812941        0.0751678656
 O         -2.6952862709        0.2315807465        0.6527130168
 O         -1.8994849720        1.8904246095       -0.5747897708
 C          0.7145810737        0.9457356341        0.0936479738
 H          4.1021413470        0.8004218810        0.3172620656
 H          3.0578791166        2.0568042741        0.9944810427
 H          3.2821439775        1.9436528589       -0.7482450529
 H          3.1601233222       -1.3561957741       -0.0801739348
 H          1.2180686144       -2.8363737762       -0.2214273775
 H         -1.0675038522       -3.2214807388       -0.3576797246
 H         -2.0908103629       -1.8987189467       -0.9443009149
 H         -1.9487695742       -2.1826725780        0.7761076961
 H         -1.0853467048        2.1548620711       -1.0237532934
 H          0.5819868160        2.0136063692        0.2197892980
