  19
        -35.16687795
 C         -4.4040147205        1.5084251242       -0.0501877183
 C         -3.0972731071        1.7064714564        0.0707961599
 C         -2.0628536270        0.6810790220        0.0331342500
 C         -2.3291244269       -0.6916060076       -0.0188978687
 N         -1.3904045979       -1.6160034052       -0.0579985721
 C         -0.1233224137       -1.2507472217       -0.0456824770
 C          0.2849728652        0.0868326025        0.0135251401
 C          1.6720973127        0.5202221181        0.0352791774
 C          2.7636756554       -0.2298715399        0.0052251743
 F          2.8439504111       -1.5513180382       -0.0518015912
 F          3.9929554207        0.2782742303        0.0296395347
 C         -0.7203229313        1.0524654027        0.0536831618
 H         -5.0981576406        2.3302038682       -0.0128412299
 H         -4.8341526894        0.5325375201       -0.1943943727
 H         -2.7246894650        2.7153365290        0.2034142957
 H         -3.3423611459       -1.0674483385       -0.0243854036
 H          0.5882728747       -2.0618927146       -0.0825318164
 H          1.8439180870        1.5863741219        0.0815667820
 H         -0.4551825716        2.1006196566        0.0984708763
