  39
        -45.47733375
 C         -6.0382212293       -0.8524431338        1.0835953519
 C         -4.6388326157       -0.3608719472        0.7338372492
 C         -4.5814471455        0.2118529406       -0.6809636375
 C         -3.1724897086        0.6170086418       -1.1150144175
 C         -2.6222712099        1.8061915328       -0.3297055399
 C         -1.3267218586        2.3679611812       -0.9179500014
 C         -0.1598986260        1.3810641034       -0.9593982819
 C          0.2572296599        0.8778044462        0.4271595197
 C          1.4809576564        0.0212089449        0.3294920525
 C          1.4304314149       -1.3672409634        0.0298321131
 C          2.6468555662       -1.9603816566       -0.0513522333
 C          2.9748835002       -3.3820188771       -0.3402319566
 S          3.9106136483       -0.8049301431        0.2414152156
 C          2.7569807994        0.4754320873        0.4693043845
 C          3.2248961902        1.8551258223        0.7817384426
 H         -6.0631036038       -1.2532366520        2.0944317997
 H         -6.3517120625       -1.6354707265        0.3962140545
 H         -6.7550115182       -0.0364160091        1.0204523065
 H         -3.9330247169       -1.1911799163        0.8149217226
 H         -4.3398584832        0.4030249172        1.4534362672
 H         -5.2439112879        1.0785152659       -0.7458645970
 H         -4.9580370636       -0.5422275291       -1.3771872708
 H         -3.1954441713        0.8793425122       -2.1759956619
 H         -2.5090652166       -0.2420053237       -0.9999461324
 H         -2.4546413283        1.5203714602        0.7089509648
 H         -3.3699912023        2.6037957479       -0.3323566182
 H         -1.0281352410        3.2396044715       -0.3292788378
 H         -1.5228356643        2.7115103258       -1.9370951101
 H          0.6965961832        1.8788740442       -1.4212748499
 H         -0.4148500060        0.5277474797       -1.5895321640
 H         -0.5512431915        0.2890430437        0.8630856061
 H          0.4507140455        1.7327388346        1.0780034411
 H          0.5066288421       -1.9005186936       -0.1150569440
 H          2.0594906583       -3.9497425025       -0.4905866627
 H          3.5317828160       -3.8249902654        0.4853757606
 H          3.5893443501       -3.4617809317       -1.2369665276
 H          4.3096024679        1.8791236543        0.8470771749
 H          2.8127756093        2.1946157778        1.7327269448
 H          2.9082941414        2.5553035746        0.0083731287
