24
 energy: -45.668046172659 gnorm: 0.000021358815 xtb: 6.4.1 (23d549d)
C        -6.12834324970000   -0.96442790120000    0.03594170070000
C        -4.83032710570000   -1.25984505530000    0.05606320190000
C        -3.76003993690000   -0.30100688410000    0.01484693520000
C        -3.80320196570000    1.07214946310000   -0.04884435850000
C        -2.54122787270000    1.67103543570000   -0.07218866960000
C        -1.50409267620000    0.76438545920000   -0.02698685930000
C        -0.10395685900000    1.03213799480000   -0.03515605240000
C         0.52125824750000    2.25967882740000   -0.07606530070000
C         1.91465740560000    2.16780750070000   -0.07303852510000
C         2.37877216770000    0.87317973790000   -0.03025207980000
C         3.75410848770000    0.47461820020000   -0.01833266500000
C         4.21112262580000   -0.77299037610000    0.02042977490000
F         3.48125797780000   -1.88122164890000    0.05569459450000
F         5.50406808600000   -1.08632367250000    0.02911871630000
S         1.05974311780000   -0.25751128360000    0.00783116040000
S        -2.11471705700000   -0.85976149080000    0.04598581120000
H        -6.87666281220000   -1.73607467640000    0.06978458550000
H        -6.48558548450000    0.04934878230000   -0.01470927530000
H        -4.51495343070000   -2.29389559160000    0.10721096150000
H        -4.72077289160000    1.63104595170000   -0.07791597460000
H        -2.38892869620000    2.73391975870000   -0.12154443150000
H        -0.01308209400000    3.19126373650000   -0.10634714180000
H         2.56971388380000    3.02028524620000   -0.10128409730000
H         4.49168491520000    1.26255049710000   -0.04381961750000
