  38
        -52.54670817
 C          5.0907114836       -2.3760495603       -0.5206074898
 C          4.6647747089       -1.1217849314       -0.4267509115
 C          3.3142460633       -0.6777976401       -0.1089482299
 C          2.2681566128       -1.5530460437        0.1771638100
 C          1.0053447946       -1.0827370581        0.4800711110
 C          0.7427878237        0.2822032266        0.5078490319
 O         -0.4666595732        0.8363448691        0.8132661920
 C         -1.5894978378        0.0157339506        1.0271406111
 C         -2.1627845353       -0.5271034573       -0.3020130441
 C         -2.8282982199        0.5856201483       -1.1219071469
 C         -4.1973061164        0.9570335195       -0.5555483577
 C         -5.0344210692       -0.3104165888       -0.4064164947
 C         -4.2730027864       -1.3153178090        0.4554187346
 O         -3.0113148561       -1.6376947763       -0.0935352941
 C          1.7811113711        1.1917779165        0.2143650917
 C          1.5035709808        2.6239253355        0.2501927563
 C          2.2274329311        3.5734092920       -0.3290599865
 C          3.0401268562        0.6882795108       -0.0806062665
 H          6.1149777970       -2.6021031166       -0.7628391857
 H          4.4472990132       -3.2246164997       -0.3638763094
 H          5.3698257499       -0.3175017933       -0.6008080190
 H          2.4344347169       -2.6186562586        0.1690374916
 H          0.2272343800       -1.7985586181        0.6946686225
 H         -2.3115021499        0.6684767198        1.5237146595
 H         -1.3612139482       -0.8217583242        1.6975930823
 H         -1.3240974063       -0.9358046043       -0.8792573909
 H         -2.9537029446        0.2309793570       -2.1469985320
 H         -2.1631738603        1.4501913892       -1.1347916317
 H         -4.6925621962        1.6645975149       -1.2227106839
 H         -4.0880729581        1.4399418507        0.4179326552
 H         -5.2112960295       -0.7489231985       -1.3903500379
 H         -5.9977932518       -0.0909941655        0.0552115288
 H         -4.8058787957       -2.2674879881        0.5093573110
 H         -4.1590563274       -0.9209622519        1.4756881922
 H          0.6057207451        2.8920375251        0.7896962311
 H          3.1104094660        3.3609197823       -0.9078110155
 H          1.9526314672        4.6115537526       -0.2530177359
 H          3.8414201340        1.3838320811       -0.2810602576
  38
        -52.54573453
 C          5.9212191711       -0.5953100251        0.5813151583
 C          4.8174586243       -1.3327991357        0.6130247577
 C          3.4590808690       -0.8903729888        0.3277645316
 C          2.4197565335       -1.8176803408        0.3763650821
 C          1.1154569937       -1.4516871348        0.1029083702
 C          0.8073556999       -0.1379056224       -0.2256868149
 O         -0.4489025031        0.3099307018       -0.5032423545
 C         -1.5273388760       -0.5945187436       -0.4515999292
 C         -2.7903540428        0.1978420766       -0.8410284028
 C         -3.1672145705        1.2299042473        0.2292988462
 C         -3.8202031657        0.5658239407        1.4397078729
 C         -4.9825591681       -0.3010076648        0.9631592033
 C         -4.4723133391       -1.2975035818       -0.0758682581
 O         -3.8645506836       -0.6541698422       -1.1779007383
 C          1.8383325642        0.8256751222       -0.2710302659
 C          1.5031457537        2.2024539545       -0.6205149464
 C          2.2388866511        3.2745168368       -0.3558076477
 C          3.1381911231        0.4256278285       -0.0000715051
 H          6.8838579342       -1.0199566272        0.8090532909
 H          5.9177937682        0.4508095678        0.3281593381
 H          4.8991998634       -2.3816661286        0.8731676238
 H          2.6341950954       -2.8469683607        0.6268432667
 H          0.3428410012       -2.2036603922        0.1448327512
 H         -1.6181474141       -1.0177784433        0.5566332444
 H         -1.3920620724       -1.4131265536       -1.1717505790
 H         -2.5553502707        0.7199597627       -1.7762949688
 H         -3.8733261068        1.9373914263       -0.2097689466
 H         -2.2671768895        1.7729775074        0.5182238175
 H         -4.1743927539        1.3298719408        2.1339211331
 H         -3.0943541113       -0.0534730994        1.9712947677
 H         -5.7442991681        0.3316109987        0.5036733177
 H         -5.4349022525       -0.8417554141        1.7953218691
 H         -5.2970342724       -1.8699550566       -0.5066981835
 H         -3.7704241291       -2.0009641447        0.3953554269
 H          0.5502036201        2.3176609094       -1.1187716145
 H          3.1767362308        3.2207204545        0.1709185688
 H          1.9191439953        4.2594924568       -0.6499304994
 H          3.9227634851        1.1617517800       -0.0619712276
  38
        -52.54573373
 C          5.4609061019       -2.1227017058        0.7717770939
 C          4.9293620537       -0.9383545231        0.4925462640
 C          3.5234697816       -0.6456885345        0.2473997121
 C          2.5291636111       -1.6217720325        0.2403006562
 C          1.2099428627       -1.2937856487       -0.0061068682
 C          0.8386069575        0.0227435922       -0.2514062056
 O         -0.4395008054        0.4264064360       -0.4949960032
 C         -1.4737260782       -0.5297181121       -0.4965197329
 C         -2.7765843121        0.2263092846       -0.8216820503
 C         -3.1953140671        1.1566677287        0.3237233084
 C         -3.8064301319        0.3736976708        1.4839522247
 C         -4.9284554894       -0.5118071707        0.9486996341
 C         -4.3775427251       -1.4025114894       -0.1630692208
 O         -3.8105204585       -0.6501494279       -1.2166909356
 C          1.8231012273        1.0337421581       -0.2432638927
 C          1.4253431930        2.4118884531       -0.5097854932
 C          2.1262525059        3.4985468537       -0.2114843092
 C          3.1401648348        0.6716371825       -0.0001675559
 H          6.5184325026       -2.2356863689        0.9382157632
 H          4.8752811944       -3.0226499766        0.8479247746
 H          5.5816562019       -0.0750275590        0.4352168357
 H          2.7809085518       -2.6545717461        0.4228649079
 H          0.4712749275       -2.0803410081       -0.0096744465
 H         -1.5341313110       -1.0236504637        0.4813537977
 H         -1.3076978757       -1.2904877539       -1.2715911029
 H         -2.5740663673        0.8268426259       -1.7166016364
 H         -3.9381165236        1.8593460761       -0.0588695628
 H         -2.3206149720        1.7203059242        0.6488677121
 H         -4.1924361032        1.0660037820        2.2341891329
 H         -3.0475008119       -0.2467870291        1.9656277869
 H         -5.7234422289        0.1146909429        0.5399715827
 H         -5.3478835214       -1.1340724145        1.7401331959
 H         -5.1762255070       -1.9819593604       -0.6319146736
 H         -3.6382244141       -2.1029519729        0.2520935298
 H          0.4545381625        2.5136645012       -0.9753615968
 H          3.0818242254        3.4576869408        0.2834467982
 H          1.7586480139        4.4829196758       -0.4455513665
 H          3.8995988896        1.4390412007       -0.0179273161
  38
        -52.54561716
 C          5.8987227502       -0.6443477739        0.6722125256
 C          4.7989844770       -1.3817461659        0.5722968996
 C          3.4480386104       -0.9093062858        0.3001150449
 C          2.4063660959       -1.8332239387        0.2390824376
 C          1.1060514030       -1.4355296882       -0.0070018144
 C          0.8048887612       -0.0940898742       -0.2049340464
 O         -0.4473214162        0.3809920174       -0.4548210289
 C         -1.5291503490       -0.5206751220       -0.4845125089
 C         -2.7938161355        0.3119153264       -0.7709679006
 C         -3.1923156478        1.1761805075        0.4321445669
 C         -3.8527708384        0.3402403500        1.5266879005
 C         -5.0005093354       -0.4596256575        0.9164738312
 C         -4.4681112192       -1.2910543807       -0.2489488338
 O         -3.8579716156       -0.4887462498       -1.2395902193
 C          1.8420075870        0.8634564710       -0.1603326570
 C          1.5136236053        2.2696250892       -0.3697612523
 C          2.3695565870        3.2366908679       -0.6754162746
 C          3.1353821229        0.4333879437        0.0970436175
 H          6.8556507202       -1.0929108291        0.8770076479
 H          5.8971318219        0.4258066032        0.5572235574
 H          4.8781454900       -2.4548709086        0.7012450773
 H          2.6142895851       -2.8830418569        0.3900686617
 H          0.3306062030       -2.1846933325       -0.0462244054
 H         -1.6089511295       -1.0495658654        0.4735663407
 H         -1.4051089389       -1.2568660759       -1.2905894038
 H         -2.5509510226        0.9641373371       -1.6183613453
 H         -3.8997445216        1.9343857640        0.0907804541
 H         -2.3014546483        1.6792601651        0.8085954026
 H         -4.2227374986        0.9940966129        2.3184073841
 H         -3.1272476364       -0.3429758664        1.9738805829
 H         -5.7642462528        0.2252946036        0.5434859674
 H         -5.4555289771       -1.1186183005        1.6568608780
 H         -5.2814947621       -1.8046766838       -0.7666511911
 H         -3.7615809646       -2.0468806706        0.1241406176
 H          0.4606803304        2.4997050392       -0.2817251481
 H          3.4231415629        3.0615477912       -0.8126984007
 H          2.0394752057        4.2520051308       -0.8134451417
 H          3.9180911325        1.1717258794        0.1538301192
  38
        -52.54351855
 C          5.2854700359       -1.3885002750        0.6568772615
 C          4.1340382364       -1.8049892989        0.1431066858
 C          2.9475842956       -1.0002567337       -0.1141931248
 C          1.8166018191       -1.6118181719       -0.6525668741
 C          0.6672689101       -0.8931705989       -0.9152859200
 C          0.6017649394        0.4683063040       -0.6434267638
 O         -0.4743770819        1.2684441123       -0.8937899592
 C         -1.7706835499        0.7411442753       -1.0576177052
 C         -2.5036673921        0.6433395173        0.3021454255
 C         -2.1012696375       -0.5851360857        1.1290657725
 C         -2.7295317797       -1.8627987133        0.5761005392
 C         -4.2373818822       -1.6617453291        0.4550598827
 C         -4.5091177886       -0.4234058337       -0.3972621799
 O         -3.9056668321        0.7348809934        0.1410888742
 C          1.7360464538        1.1130918666       -0.1008644141
 C          1.6743924665        2.5460646801        0.1712472417
 C          2.4666061895        3.2154972816        0.9988841759
 C          2.8792790795        0.3667855661        0.1449054189
 H          6.1071345406       -2.0669524540        0.8097404041
 H          5.4607859233       -0.3663220204        0.9446446592
 H          4.0298406153       -2.8504001032       -0.1228853115
 H          1.8361821018       -2.6691722899       -0.8757628942
 H         -0.1752270294       -1.4138989597       -1.3430873801
 H         -1.7635859055       -0.2130429197       -1.5887845420
 H         -2.3044771877        1.4747043226       -1.6708258919
 H         -2.2381229731        1.5517435093        0.8575870022
 H         -2.4583833832       -0.4343350377        2.1502470694
 H         -1.0137304384       -0.6640430633        1.1588503704
 H         -2.5066319823       -2.7000421560        1.2398042335
 H         -2.3154147165       -2.1011303822       -0.4059735395
 H         -4.6654946447       -1.5105105936        1.4476414256
 H         -4.7131208961       -2.5309343709       -0.0006376163
 H         -5.5771628026       -0.1959153700       -0.4259333939
 H         -4.1628024030       -0.5955515656       -1.4269364759
 H          0.8835523702        3.0672705695       -0.3496801706
 H          3.2462731651        2.7410863217        1.5708534209
 H          2.3539997896        4.2760135510        1.1452733396
 H          3.7449526212        0.8740318828        0.5380160493
  38
        -52.54312633
 C          5.0442832696       -1.8396295950       -1.0979707861
 C          4.4031647643       -0.6935892064       -0.9005759697
 C          3.0690499838       -0.5223104415       -0.3418586096
 C          2.2817532982       -1.5836527030        0.1001563585
 C          1.0242769598       -1.3702426665        0.6299103376
 C          0.5064437305       -0.0850813791        0.7418571654
 O         -0.7145811991        0.2367149077        1.2537158353
 C         -1.6312703216       -0.7525776704        1.6569504850
 C         -2.6678641209       -1.1842953742        0.5841656602
 C         -2.1311321207       -1.2379475054       -0.8557666188
 C         -2.0397633151        0.1443822412       -1.5041861859
 C         -3.3645018355        0.8792414454       -1.3240626968
 C         -3.7079362915        0.9004361252        0.1626994310
 O         -3.8466044958       -0.4102568687        0.6758497731
 C          1.2792507481        1.0070527361        0.2906499704
 C          0.7353143439        2.3578005544        0.4009737892
 C          1.0864164986        3.3947961340       -0.3482306321
 C          2.5396491943        0.7624041480       -0.2333169335
 H          6.0345617583       -1.8607540121       -1.5194721884
 H          4.6182280507       -2.7973097975       -0.8530614257
 H          4.8947326633        0.2325502335       -1.1738657941
 H          2.6495338853       -2.5955645912        0.0351380363
 H          0.4538481372       -2.2275577042        0.9543067996
 H         -2.1951014281       -0.3059903565        2.4836985779
 H         -1.1152884564       -1.6357560659        2.0429835174
 H         -3.0014114364       -2.1893833912        0.8735729632
 H         -2.8269579510       -1.8469679749       -1.4383382957
 H         -1.1579671355       -1.7297366587       -0.8684791968
 H         -1.8057752922        0.0293399527       -2.5647422194
 H         -1.2417595691        0.7313222817       -1.0496258487
 H         -4.1570598332        0.3576072810       -1.8648944490
 H         -3.2948020981        1.8995199014       -1.7021923824
 H         -4.6733280187        1.3790988887        0.3414216529
 H         -2.9298400053        1.4461087838        0.7134415374
 H         -0.0349643338        2.4750094349        1.1511562425
 H          1.8189928350        3.3191503030       -1.1342040838
 H          0.6400830042        4.3644929428       -0.2091106116
 H          3.1372710527        1.6028813509       -0.5538817690
  38
        -52.54228887
 C          5.6912381358       -1.2102792054        0.5555002614
 C          4.6006748413       -1.6825732199       -0.0370646112
 C          3.3148200207       -1.0120031036       -0.1687949145
 C          2.2781425455       -1.6538143669       -0.8427345273
 C          1.0463697945       -1.0505136715       -1.0074355647
 C          0.7960440306        0.2154820038       -0.4893371906
 O         -0.3571233779        0.9117583748       -0.6822091197
 C         -1.5006887400        0.2778249536       -1.1972092699
 C         -2.1666935704       -0.6464954194       -0.1534395424
 C         -3.4257303368       -1.3215169949       -0.7153316355
 C         -4.5888716412       -0.3350360267       -0.8048277253
 C         -4.7918933839        0.3177579741        0.5602244345
 C         -3.4813184941        0.9574870617        1.0161061456
 O         -2.4235257159        0.0232163141        1.0634219989
 C          1.8184581844        0.8742237240        0.2254424816
 C          1.6368346566        2.1833221986        0.8532489772
 C          0.5118324829        2.6530064072        1.3739563704
 C          3.0542848004        0.2555353982        0.3484537897
 H          6.5986707981       -1.7879138388        0.5990602476
 H          5.7299236526       -0.2394469002        1.0184965672
 H          4.6361613333       -2.6696996142       -0.4831805799
 H          2.4384940817       -2.6401168489       -1.2549906837
 H          0.2823413612       -1.5825721885       -1.5535176766
 H         -1.2812536241       -0.2926417944       -2.1079997855
 H         -2.1673206062        1.1009065835       -1.4637170943
 H         -1.4340715228       -1.4123174757        0.1302472458
 H         -3.7049726426       -2.1342187167       -0.0415312778
 H         -3.2044597190       -1.7497428611       -1.6940648323
 H         -5.4950435988       -0.8602145383       -1.1126028679
 H         -4.3774905876        0.4312351952       -1.5535721716
 H         -5.0873014538       -0.4430926076        1.2853915214
 H         -5.5729101705        1.0775520301        0.5165053636
 H         -3.5662158079        1.3335781250        2.0383373937
 H         -3.2276548792        1.8005848635        0.3579566609
 H          2.5453085997        2.7702508750        0.9304172618
 H         -0.4041714854        2.0903456753        1.3596489137
 H          0.4788398019        3.6191965514        1.8500591191
 H          3.8296446364        0.7797422318        0.8864171099
  38
        -52.54198746
 C          4.2449199927       -2.7413551852        0.9501631092
 C          3.7209027636       -1.5333883601        1.1210556662
 C          2.6903987995       -0.9046886825        0.3043326051
 C          2.1727010702       -1.4857007550       -0.8546822590
 C          1.1848725556       -0.8520126413       -1.5769001100
 C          0.6858448148        0.3801023107       -1.1738270764
 O         -0.2966121458        0.9692002980       -1.9436845557
 C         -1.5471823458        1.1578517482       -1.3134227291
 C         -2.2650517418       -0.1813925453       -1.0488710458
 C         -3.7355168844        0.0285748499       -0.6603421420
 C         -3.8576796086        0.5424344031        0.7727999340
 C         -3.1164838678       -0.4137238096        1.7036966280
 C         -1.6702167367       -0.5542579510        1.2318240744
 O         -1.5857072353       -0.9910511584       -0.1075284495
 C          1.2192098621        1.0086889288       -0.0387972469
 C          0.7893347226        2.3558554326        0.3424420496
 C          0.6929636597        2.8013903284        1.5877913077
 C          2.2041252681        0.3443119844        0.6819837880
 H          5.0040916086       -3.1206377626        1.6126735963
 H          3.9430514472       -3.4006242272        0.1548218877
 H          4.0679079228       -0.9267813003        1.9494495693
 H          2.5398440580       -2.4420771976       -1.1917239752
 H          0.7732638830       -1.3052456702       -2.4653484387
 H         -2.1362583738        1.7476694492       -2.0198240246
 H         -1.4355266794        1.7232485332       -0.3818442243
 H         -2.2105632432       -0.7639980743       -1.9769554543
 H         -4.2473955072       -0.9333823134       -0.7328796681
 H         -4.2034812480        0.7190530899       -1.3628534518
 H         -4.9104052144        0.6068764921        1.0546645209
 H         -3.4279102062        1.5432320088        0.8524887664
 H         -3.5983478662       -1.3930131515        1.6764358044
 H         -3.1298066518       -0.0480836072        2.7310101428
 H         -1.1412820825       -1.3195214999        1.8047077630
 H         -1.1414440234        0.3998293563        1.3678864891
 H          0.5441293788        3.0082439231       -0.4878300753
 H          0.9039926601        2.1722260796        2.4371564885
 H          0.3875998096        3.8106550660        1.8067894558
 H          2.6245411763        0.8329770913        1.5498800649
  38
        -52.54084091
 C          5.0530999422       -2.5364565443       -0.3514376028
 C          4.4841382928       -1.5407030436        0.3174087748
 C          3.2399288960       -0.8612203687       -0.0213348909
 C          2.4289426649       -1.2378170952       -1.0927889236
 C          1.2493422439       -0.5696380779       -1.3425084133
 C          0.8463919767        0.5071122497       -0.5591077428
 O         -0.3474278279        1.1190984897       -0.8853878356
 C         -1.3828864822        1.0054491240        0.0702584073
 C         -1.9499778477       -0.4300556993        0.1159774725
 C         -2.7011065834       -0.7871880293       -1.1730058056
 C         -4.0790547886       -0.1298558278       -1.2168603100
 C         -4.8323356832       -0.4624965070        0.0679100332
 C         -3.9908945914       -0.0299531358        1.2670382651
 O         -2.7232004491       -0.6536704978        1.2781980250
 C          1.6668573488        0.9392335400        0.4940516992
 C          1.3957113031        2.1228604433        1.3116853243
 C          0.8108503620        3.2325129631        0.8810525925
 C          2.8312323534        0.2217269357        0.7523455012
 H          5.9795004453       -2.9741411774       -0.0211639705
 H          4.6296337476       -2.9544624044       -1.2483804760
 H          4.9710832376       -1.1650946479        1.2094673388
 H          2.7081923511       -2.0681627812       -1.7216508141
 H          0.6101692015       -0.8729354587       -2.1582477713
 H         -2.1398388409        1.7237909797       -0.2502502802
 H         -1.0362725079        1.2747259543        1.0753426756
 H         -1.0935552052       -1.1076924357        0.2349454734
 H         -2.8221358951       -1.8716192232       -1.2162500938
 H         -2.0963181495       -0.4696992156       -2.0231543757
 H         -4.6319926393       -0.4890238708       -2.0868061029
 H         -3.9774922407        0.9533043830       -1.3114646511
 H         -5.0020305298       -1.5395336249        0.1234288529
 H         -5.7977622966        0.0440614811        0.0977681170
 H         -4.4607831426       -0.3350920727        2.2050532817
 H         -3.8819675184        1.0642274459        1.2714717637
 H          1.7779016235        2.0737520477        2.3248447884
 H          0.4510244273        3.3291654402       -0.1289960864
 H          0.6779823203        4.0853346662        1.5255135568
 H          3.4564837540        0.5424933098        1.5749972235
  38
        -52.53730361
 C          4.7443940734       -2.7830484048        0.0914863079
 C          4.3363371338       -1.5730191789       -0.2725800177
 C          3.0425515987       -0.9667900043        0.0105718074
 C          2.0379385710       -1.6060864795        0.7406255830
 C          0.8205515733       -0.9956021114        0.9362767858
 C          0.5569327115        0.2829488886        0.4402006810
 O         -0.7111556963        0.7484279388        0.6494159883
 C         -1.3509387196        1.5043215266       -0.3578755097
 C         -2.7944148117        1.0254687255       -0.6445586641
 C         -3.6324671429        0.8014247908        0.6221333366
 C         -3.3353998682       -0.5460027737        1.2774024439
 C         -3.4473127472       -1.6494878859        0.2297247235
 C         -2.5219259936       -1.3219629307       -0.9394112153
 O         -2.8388286909       -0.0754309336       -1.5280907138
 C          1.5787342047        0.9789372309       -0.2214588818
 C          1.4948458592        2.3901460520       -0.6143952873
 C          1.0384068132        3.3519708786        0.1747847688
 C          2.7830893535        0.3198693810       -0.4510219499
 H          5.7247073441       -3.1438937744       -0.1683993255
 H          4.1290659688       -3.4611062614        0.6572790344
 H          5.0100284092       -0.9442753163       -0.8425817973
 H          2.2002155294       -2.5947839737        1.1392360313
 H          0.0361095015       -1.5021627163        1.4786805277
 H         -0.7899564623        1.4525970770       -1.2970259370
 H         -1.3999717974        2.5548052405       -0.0420580371
 H         -3.2496905268        1.8361996304       -1.2296144284
 H         -4.6869107707        0.8305211590        0.3370641474
 H         -3.4411113901        1.6164341743        1.3204995609
 H         -4.0413321753       -0.7208887697        2.0921254483
 H         -2.3284496512       -0.5334432913        1.6930188824
 H         -4.4750845409       -1.7075650890       -0.1356755877
 H         -3.1731108769       -2.6173620043        0.6514343430
 H         -2.6378918875       -2.0486909648       -1.7475276239
 H         -1.4768183977       -1.3370240804       -0.6048456905
 H          1.9214337810        2.6352576767       -1.5797682219
 H          0.6591111245        3.1414000547        1.1613242687
 H          1.0423510378        4.3850739104       -0.1288593001
 H          3.5587963528        0.8532770888       -0.9841222465
