  33
        -39.14973505
 C          2.8881725414        2.1862066066       -1.5307929822
 C          3.0629222020        1.4603480131       -0.2027015375
 C          2.2423737166        0.1741400291       -0.1522981118
 C          2.3967061319       -0.5500043372        1.1834010415
 C          1.5573174288       -1.8265807959        1.2870482406
 C          0.1162812231       -1.5886121983        1.7601421181
 C         -0.7040186917       -0.7638038205        0.8172349029
 C         -1.0270807202        0.6001119334        1.0629870697
 C         -1.7650426850        1.1805554376        0.0854704593
 C         -2.2726527376        2.5760924712        0.0037414350
 S         -2.0956348531        0.0443884352       -1.1873216796
 C         -1.2200908601       -1.2122479456       -0.3609212306
 C         -1.1035438732       -2.5580973370       -0.9854099682
 H          3.4710599055        3.1043813474       -1.5478920856
 H          1.8419353924        2.4393760808       -1.6891754799
 H          3.2149855659        1.5565787319       -2.3556659064
 H          2.7499491719        2.1175888264        0.6121286982
 H          4.1194466421        1.2258185568       -0.0509069029
 H          2.5631655233       -0.4895027171       -0.9594044125
 H          1.1941416582        0.4186529470       -0.3210683994
 H          2.1258427937        0.1276623241        1.9962143031
 H          3.4510986821       -0.8083100748        1.3136948989
 H          2.0289787345       -2.5025346456        2.0048315074
 H          1.5445114906       -2.3299959400        0.3190340149
 H          0.1416203518       -1.0901696845        2.7313812463
 H         -0.3637299346       -2.5619913670        1.8982651083
 H         -0.7091633049        1.1250348423        1.9472417315
 H         -1.9607206404        3.1352146125        0.8829121276
 H         -3.3610827790        2.5882535661       -0.0529282856
 H         -1.8877136197        3.0755062417       -0.8854079069
 H         -1.9895247523       -2.7812315036       -1.5764725098
 H         -0.9870030155       -3.3225400196       -0.2194690182
 H         -0.2376594597       -2.6037908330       -1.6481968558
