  43
        -70.92356484
 C         -3.0962042529        2.6328078887        1.6823483752
 C         -2.5480926441        2.6295975689        0.2558777189
 C         -1.5776314837        3.7931904968        0.0496123147
 O         -1.7284360036        1.4563320878        0.0337530024
 C         -2.2486870808        0.2294254953        0.1444092239
 N         -1.2758904584       -0.7223311798       -0.0791484372
 C          0.0922087382       -0.3851887181       -0.1491039853
 C          0.6949432865        0.4039193253        0.8263264446
 C          2.0347237128        0.7199250077        0.7427242334
 C          2.8162925184        0.2456256625       -0.3133139698
 C          4.2310597639        0.5398505586       -0.4624242283
 C          5.0052490182        1.2878241939        0.3105622367
 F          4.6695527108        1.9486941175        1.4124947616
 F          6.2999506529        1.4867821348        0.0677684904
 C          2.2052114133       -0.5609110619       -1.2772746495
 C          0.8651770828       -0.8727586442       -1.1999135358
 C         -1.6307794517       -2.0812828771       -0.2545271991
 C         -2.7538566205       -2.4449939137       -0.9876503436
 C         -3.0705725574       -3.7825428527       -1.1424967447
 C         -2.2694412179       -4.7639799562       -0.5845963303
 C         -1.1456564225       -4.4016517701        0.1391619341
 C         -0.8269405732       -3.0678306103        0.3093926566
 O         -3.3983030049       -0.0397461331        0.3868246163
 C         -3.6808976044        2.6864663407       -0.7681850198
 H         -2.2798595367        2.5661255796        2.3987369734
 H         -3.7656440343        1.7899030028        1.8308577117
 H         -3.6440781317        3.5537846808        1.8601824478
 H         -0.7558167298        3.7239685150        0.7573538219
 H         -2.0935647506        4.7375628730        0.1938288401
 H         -1.1666230308        3.7606623041       -0.9558499964
 H          0.1081165060        0.7667884479        1.6554379782
 H          2.4741134367        1.3314823093        1.5133654021
 H          4.7274011562        0.0981377615       -1.3146030270
 H          2.7915396941       -0.9409082710       -2.1008861676
 H          0.4053040961       -1.4960185419       -1.9523681510
 H         -3.3798001199       -1.6845314857       -1.4252064303
 H         -3.9465724788       -4.0580394498       -1.7104419087
 H         -2.5193457745       -5.8064544131       -0.7119435654
 H         -0.5166620078       -5.1603244952        0.5807589472
 H          0.0449099948       -2.7835894266        0.8803537869
 H         -4.2259572604        3.6196969920       -0.6584864252
 H         -4.3664098983        1.8571710972       -0.6172624129
 H         -3.2750916004        2.6309926407       -1.7762579332
