  20
        -34.65886407
 C         -3.4773385072        0.5272229721        0.7576475579
 C         -2.8912577899       -0.3117515844       -0.0840224558
 C         -1.4548406625       -0.5538976166       -0.1613112240
 C         -0.9684286863       -1.8085314478       -0.4031082706
 S          0.7342257127       -1.9054004716       -0.3314987691
 C          0.8426197756       -0.1993955516        0.0147679403
 C          2.1380069556        0.4647959228        0.1956500116
 O          2.2513618965        1.6492798353        0.3749643182
 O          3.2285181311       -0.3250166996        0.1598833392
 C         -0.4044507273        0.3915480731        0.0623435169
 C         -0.5787862780        1.8258662469        0.2530896379
 C         -1.3864793178        2.5715869326       -0.4873809242
 H         -4.5480631530        0.6319016471        0.7875570425
 H         -2.9135455102        1.1362744719        1.4428563367
 H         -3.4905189301       -0.9351519271       -0.7360592528
 H         -1.5327360852       -2.7006981788       -0.5945874005
 H          3.0214797342       -1.2571327699        0.0107648644
 H          0.0633753145        2.2771398134        0.9960760283
 H         -1.9921416825        2.1525597445       -1.2741145768
 H         -1.4589415654        3.6345002521       -0.3379449579
