20
 energy: -34.658864070097 gnorm: 0.000192121221 xtb: 6.4.1 (23d549d)
C        -3.47733850720000    0.52722297210000    0.75764755790000
C        -2.89125778990000   -0.31175158440000   -0.08402245580000
C        -1.45484066250000   -0.55389761660000   -0.16131122400000
C        -0.96842868630000   -1.80853144780000   -0.40310827060000
S         0.73422571270000   -1.90540047160000   -0.33149876910000
C         0.84261977560000   -0.19939555160000    0.01476794030000
C         2.13800695560000    0.46479592280000    0.19565001160000
O         2.25136189650000    1.64927983530000    0.37496431820000
O         3.22851813110000   -0.32501669960000    0.15988333920000
C        -0.40445072730000    0.39154807310000    0.06234351690000
C        -0.57878627800000    1.82586624690000    0.25308963790000
C        -1.38647931780000    2.57158693260000   -0.48738092420000
H        -4.54806315300000    0.63190164710000    0.78755704250000
H        -2.91354551020000    1.13627447190000    1.44285633670000
H        -3.49051893010000   -0.93515192710000   -0.73605925280000
H        -1.53273608520000   -2.70069817880000   -0.59458740050000
H         3.02147973420000   -1.25713276990000    0.01076486440000
H         0.06337531450000    2.27713981340000    0.99607602830000
H        -1.99214168250000    2.15255974450000   -1.27411457680000
H        -1.45894156540000    3.63450025210000   -0.33794495790000
