  38
        -62.83986092
 F          6.5158801703        0.4148725979       -0.0902550331
 C          5.2363124105        0.0787288564        0.0844133621
 F          5.1825681539       -1.0544771982        0.7779395861
 C          4.2283770932        0.8012658555       -0.3839262651
 C          2.8041835700        0.5524407346       -0.2671757535
 C          1.9214663807        1.4618081016       -0.8582509131
 C          0.5584234680        1.2867836487       -0.7877493916
 C          0.0192580544        0.1872842503       -0.1140013362
 N         -1.3574245535        0.0048311312       -0.0368524245
 C         -1.9021272180       -1.2876146023       -0.0256694454
 C         -1.3627821515       -2.2903244270       -0.8301651107
 C         -1.9068611470       -3.5600314691       -0.8158596219
 C         -2.9970699768       -3.8472474005       -0.0109214055
 C         -3.5399002734       -2.8523320686        0.7855236716
 C         -2.9978408752       -1.5816614049        0.7844069803
 C         -2.2167212764        1.1108815654        0.0299931499
 C         -3.4340488416        1.0978858493       -0.6493348791
 C         -4.2836431529        2.1845599394       -0.5737954362
 C         -3.9326545315        3.2991954679        0.1700260409
 C         -2.7233033589        3.3171795348        0.8454394352
 C         -1.8705812281        2.2321696609        0.7828411543
 C          0.8966868200       -0.7241448348        0.4802578074
 C          2.2599136051       -0.5462895243        0.4040331240
 H          4.5186938030        1.6916244741       -0.9233506922
 H          2.3173688831        2.3149938096       -1.3896650768
 H         -0.1031957400        1.9966067218       -1.2616734822
 H         -0.5197275512       -2.0651024486       -1.4668821044
 H         -1.4814222619       -4.3279956859       -1.4448203306
 H         -3.4212948596       -4.8396869952       -0.0050315284
 H         -4.3873675535       -3.0685933815        1.4191104812
 H         -3.4170635877       -0.8086620848        1.4117538099
 H         -3.7054710292        0.2324006974       -1.2359153887
 H         -5.2230279127        2.1633663388       -1.1062601671
 H         -4.5976182198        4.1476371334        0.2241263259
 H         -2.4449536386        4.1791264799        1.4336894576
 H         -0.9333977354        2.2429266184        1.3199549951
 H          0.4960118212       -1.5734836959        1.0133068835
 H          2.9043124323       -1.2659922731        0.8812884239
