  14
        -25.29557836
 C         -4.2064757550        0.1482390413       -0.0033063671
 C         -2.9910201787       -0.3958466485        0.0011040537
 C         -1.7761016889        0.3737975289        0.0014413407
 C         -0.5494052592       -0.1735647584        0.0029324691
 C          0.6593099739        0.6035254791        0.0020217327
 C          1.8762423285        0.0708474494       -0.0000261574
 F          2.1555384947       -1.2285261529       -0.0012973982
 F          3.0074347308        0.7697686534       -0.0013440583
 H         -5.0996994108       -0.4516043642       -0.0038688707
 H         -4.3453259270        1.2169744838       -0.0068237069
 H         -2.8770836703       -1.4720433196        0.0043883217
 H         -1.8830530900        1.4508697551       -0.0002629418
 H         -0.4344822203       -1.2489237125        0.0041732041
 H          0.5886852766        1.6802251223        0.0025257014
  14
        -25.29231686
 C         -3.4882240680       -0.9405659577       -0.0043284262
 C         -3.1325437828        0.3429048057        0.0026912518
 C         -1.7827562659        0.8589564989        0.0039028343
 C         -0.6543018311        0.1297756524        0.0004339604
 C          0.6542802218        0.7229021319        0.0021571636
 C          1.7805459624        0.0181779330       -0.0002005440
 F          1.8668310774       -1.3082086226       -0.0044793458
 F          3.0017368722        0.5441466421        0.0013359098
 H         -4.5235635916       -1.2338549474       -0.0045093808
 H         -2.7687711012       -1.7408578854       -0.0100546774
 H         -3.9085909816        1.0978604305        0.0080883119
 H         -1.6958197775        1.9383059255        0.0084038497
 H         -0.6904925728       -0.9493645305       -0.0037185558
 H          0.7425598093        1.7984067901        0.0055548721
  14
        -25.28938804
 C         -3.7042240527        0.2461948072        0.1286505999
 C         -2.7592520008       -0.6670541818       -0.0852025636
 C         -1.3296456970       -0.4474329085       -0.0623591709
 C         -0.7299550424        0.7553962522       -0.0551863395
 C          0.6892736500        1.0071081848       -0.0307236907
 C          1.6778998483        0.1200233047        0.0086672084
 F          1.5812228247       -1.2040540500        0.0333147890
 F          2.9653377791        0.4610820152        0.0285969184
 H         -4.7487261538       -0.0103496238        0.0936265107
 H         -3.4764806797        1.2732475861        0.3567471427
 H         -3.0580504201       -1.6888741358       -0.2820337275
 H         -0.7282274249       -1.3447246116       -0.0667063131
 H         -1.3360953948        1.6492819826       -0.0784024654
 H          1.0062540447        2.0395632760       -0.0443822655
