  24
        -45.66872220
 C         -6.4531851335        0.5626480347        0.0774654228
 C         -5.2114506972        1.0350590438        0.1633797208
 C         -4.0142269506        0.2510933659        0.0273856700
 C         -3.8583573719       -1.0938784035       -0.2130012903
 C         -2.5231446633       -1.4998846819       -0.2803580029
 C         -1.6276377607       -0.4694668963       -0.0919906825
 C         -0.2036383494       -0.5341275484       -0.0972190914
 C          0.5931182417       -1.6425076470       -0.2877376011
 C          1.9610623136       -1.3632368438       -0.2324946228
 C          2.2360633696       -0.0363198620        0.0011060871
 C          3.4918894116        0.6437814727        0.1260568566
 C          4.6967118726        0.0897747528        0.0376186974
 F          4.9696530146       -1.1920755091       -0.1819864223
 F          5.8325927221        0.7702704844        0.1618524824
 S          0.7677432327        0.8827828905        0.1552487791
 S         -2.4665118486        1.0283078241        0.1726371272
 H         -7.3050359372        1.2093538261        0.1899359181
 H         -6.6602711208       -0.4771149968       -0.1065263044
 H         -5.0486174499        2.0886225950        0.3502319896
 H         -4.6856190738       -1.7685786525       -0.3375443726
 H         -2.2192388963       -2.5148541612       -0.4612871833
 H          0.1964894693       -2.6258416926       -0.4615281428
 H          2.7232990917       -2.1096601197       -0.3596736278
 H          3.4640457913        1.7070151088        0.3097414634
