  22
        -36.98807164
 C          3.7743598733        1.5376192564       -0.0538415591
 C          3.3368834559        0.2854715143        0.0031148399
 C          1.9464907570       -0.1479815766        0.0359006886
 C          0.8542007533        0.7222404182       -0.0011996858
 C         -0.4347507657        0.2072693240        0.0386851956
 C         -1.5759554265        1.1735197777        0.1303495474
 O         -2.3637859063        1.1963401391        1.0296797976
 O         -1.6213155644        2.0856993416       -0.8645380903
 C         -0.6166934727       -1.1820170596        0.0949452561
 C         -1.9181204936       -1.8341725111        0.0667132655
 C         -2.9815825625       -1.3933947469       -0.5917145325
 C          0.5502640330       -1.9546617742        0.1443461887
 N          1.7681758401       -1.4687382784        0.1128053804
 H          4.8274262372        1.7586457731       -0.0725842161
 H          3.1166661538        2.3902122901       -0.0794629985
 H          4.0370465743       -0.5378350370        0.0324402372
 H          1.0078491291        1.7911917556       -0.0203418334
 H         -0.9136271055        1.9615921042       -1.5116414257
 H         -1.9626837208       -2.7796103552        0.5917661489
 H         -2.9744126991       -0.4816790767       -1.1653197288
 H         -3.9091167038       -1.9386102113       -0.5856545381
 H          0.4810258192       -3.0337855129        0.2030693163
