22
 energy: -36.988071636403 gnorm: 0.000065860586 xtb: 6.4.1 (23d549d)
C         3.77435987330000    1.53761925640000   -0.05384155910000
C         3.33688345590000    0.28547151430000    0.00311483990000
C         1.94649075700000   -0.14798157660000    0.03590068860000
C         0.85420075330000    0.72224041820000   -0.00119968580000
C        -0.43475076570000    0.20726932400000    0.03868519560000
C        -1.57595542650000    1.17351977770000    0.13034954740000
O        -2.36378590630000    1.19634013910000    1.02967979760000
O        -1.62131556440000    2.08569934160000   -0.86453809030000
C        -0.61669347270000   -1.18201705960000    0.09494525610000
C        -1.91812049360000   -1.83417251110000    0.06671326550000
C        -2.98158256250000   -1.39339474690000   -0.59171453250000
C         0.55026403300000   -1.95466177420000    0.14434618870000
N         1.76817584010000   -1.46873827840000    0.11280538040000
H         4.82742623720000    1.75864577310000   -0.07258421610000
H         3.11666615380000    2.39021229010000   -0.07946299850000
H         4.03704657430000   -0.53783503700000    0.03244023720000
H         1.00784912910000    1.79119175560000   -0.02034183340000
H        -0.91362710550000    1.96159210420000   -1.51164142570000
H        -1.96268372080000   -2.77961035520000    0.59176614890000
H        -2.97441269910000   -0.48167907670000   -1.16531972880000
H        -3.90911670380000   -1.93861021130000   -0.58565453810000
H         0.48102581920000   -3.03378551290000    0.20306931630000
