  17
        -25.21040316
 C          3.5507326015       -0.0376213764        0.0009690810
 C          2.3873902437       -0.6829245380       -0.0003959832
 C          1.0942170220       -0.0532568639       -0.0000285488
 C          0.7013619828        1.2683551092       -0.0005712815
 C         -0.7013678886        1.2683553321       -0.0001673149
 C         -1.0942203393       -0.0532580714        0.0004727386
 C         -2.3873914164       -0.6829255414        0.0011908342
 C         -3.5507247156       -0.0376101579       -0.0020685455
 O         -0.0000017532       -0.8470146475        0.0006653562
 H          4.4858071945       -0.5686758852        0.0000806671
 H          3.6051998982        1.0369839242        0.0028092432
 H          2.3568082212       -1.7643848252       -0.0020676488
 H          1.3432282531        2.1252735600       -0.0011931974
 H         -1.3432325212        2.1252744262       -0.0001307465
 H         -2.3568030805       -1.7643720060        0.0046149555
 H         -3.6051608863        1.0369749479       -0.0059687650
 H         -4.4857893379       -0.5686961366       -0.0015679321
