  22
        -29.87312237
 C         -3.8329916445       -0.5118942346        0.3127128442
 C         -3.0062861711        0.4821771464        0.0101307630
 C         -1.5522329006        0.4195823931       -0.0555141648
 C         -0.8286222453        1.6058086071       -0.2060661180
 C          0.5467287962        1.5796428121       -0.2610827867
 C          1.2678945908        0.3906828456       -0.1536826827
 C          2.7250942092        0.4643588962       -0.1808095311
 C          3.5706858171       -0.3033850318        0.4979703073
 C          0.5468697120       -0.8149306513       -0.0445259148
 N          1.1869467406       -2.0371676392        0.0379053728
 C         -0.8440605126       -0.7748195495        0.0035232564
 H         -4.8992341491       -0.3650853461        0.3416243762
 H         -3.4890301871       -1.5039081412        0.5508890316
 H         -3.4214337152        1.4607894064       -0.2005610410
 H         -1.3535115799        2.5473687847       -0.2765903814
 H          1.0940654320        2.5055902973       -0.3713143931
 H          3.1215743022        1.2699029026       -0.7893417226
 H          3.2372472672       -1.0680240219        1.1784971785
 H          4.6358537941       -0.1552030481        0.4308577900
 H          2.1108931242       -2.0702003408       -0.3657729815
 H          0.6103431506       -2.8343987802       -0.1836830532
 H         -1.3755962927       -1.7122134802        0.0803251762
