22
 energy: -29.873122372745 gnorm: 0.000074069705 xtb: 6.4.1 (23d549d)
C        -3.83299164450000   -0.51189423460000    0.31271284420000
C        -3.00628617110000    0.48217714640000    0.01013076300000
C        -1.55223290060000    0.41958239310000   -0.05551416480000
C        -0.82862224530000    1.60580860710000   -0.20606611800000
C         0.54672879620000    1.57964281210000   -0.26108278670000
C         1.26789459080000    0.39068284560000   -0.15368268270000
C         2.72509420920000    0.46435889620000   -0.18080953110000
C         3.57068581710000   -0.30338503180000    0.49797030730000
C         0.54686971200000   -0.81493065130000   -0.04452591480000
N         1.18694674060000   -2.03716763920000    0.03790537280000
C        -0.84406051260000   -0.77481954950000    0.00352325640000
H        -4.89923414910000   -0.36508534610000    0.34162437620000
H        -3.48903018710000   -1.50390814120000    0.55088903160000
H        -3.42143371520000    1.46078940640000   -0.20056104100000
H        -1.35351157990000    2.54736878470000   -0.27659038140000
H         1.09406543200000    2.50559029730000   -0.37131439310000
H         3.12157430220000    1.26990290260000   -0.78934172260000
H         3.23724726720000   -1.06802402190000    1.17849717850000
H         4.63585379410000   -0.15520304810000    0.43085779000000
H         2.11089312420000   -2.07020034080000   -0.36577298150000
H         0.61034315060000   -2.83439878020000   -0.18368305320000
H        -1.37559629270000   -1.71221348020000    0.08032517620000
