  22
        -36.98640102
 C         -2.4206021071       -1.8520564063       -0.4623826546
 C         -2.4086270177       -0.7128921901        0.2165521676
 C         -1.3591460252        0.3036798562        0.1477807697
 C         -1.7243786050        1.6512936075        0.2181423965
 N         -0.8766675343        2.6516511867        0.0906880714
 C          0.3975408345        2.3725072790       -0.0952296331
 C          0.9145906639        1.0743134282       -0.1398712090
 C          2.3580322805        0.8875468496       -0.2648732723
 C          3.0724508596       -0.0304018070        0.3693241559
 C          0.0031119847        0.0170381846       -0.0234616559
 C          0.4861656846       -1.3997005734       -0.1103658315
 O          1.0182773191       -1.8680260842       -1.0741818585
 O          0.2862435382       -2.1354009537        1.0048989195
 H         -3.2467618879       -2.5380265566       -0.3867875919
 H         -1.6265201463       -2.1371443635       -1.1312990827
 H         -3.2568575514       -0.4421398446        0.8338332595
 H         -2.7605588667        1.9280331148        0.3623727228
 H          1.0562969157        3.2252517646       -0.1928639504
 H          2.8527193539        1.6168110608       -0.8933271314
 H          2.6357794601       -0.7505309742        1.0406204168
 H          4.1394289147       -0.0919750933        0.2443000617
 H         -0.2047822781       -1.6534336635        1.6832765847
