  29
        -37.51455194
 C          3.5676153539        1.4635814838       -0.5849331924
 C          2.3541577394        1.8088121755       -0.1727435456
 C          1.2166539074        0.9225444393       -0.0518474608
 C         -0.1110092165        1.2973185971       -0.1719269648
 N         -0.8599718154        0.1879476027       -0.0378704058
 C         -2.3077660282        0.0325150666       -0.0443259184
 C         -2.9839955326        1.3162244594       -0.5181638788
 C         -2.6454758885       -1.1241858608       -0.9884370778
 C         -2.7449428742       -0.3076850941        1.3845434476
 N         -0.1079035450       -0.8825772264        0.1878098203
 C          1.1571112446       -0.4797332853        0.1832844282
 C          2.2463397456       -1.3902856428        0.4620485747
 C          2.1399436054       -2.7111224385        0.3878273670
 H          4.3641777490        2.1854741709       -0.6500340854
 H          3.8055506746        0.4590906391       -0.8897046343
 H          2.1476395279        2.8440229886        0.0754243805
 H         -0.5275028769        2.2652581142       -0.3600461265
 H         -2.6254294719        1.6014607854       -1.5048385055
 H         -2.8062325417        2.1342366070        0.1761599208
 H         -4.0567740026        1.1521752980       -0.5791303301
 H         -2.3581813619       -0.8767836182       -2.0080153767
 H         -3.7116588687       -1.3313927604       -0.9643019775
 H         -2.1002471858       -2.0119113752       -0.6812580451
 H         -2.4987777458        0.5081199767        2.0612898392
 H         -2.2275681888       -1.2031216308        1.7186601733
 H         -3.8169401563       -0.4809066577        1.4210442667
 H          3.1762550341       -0.9236133055        0.7581260762
 H          1.2150592350       -3.1728487548        0.0886417819
 H          2.9645533679       -3.3630176702        0.6208437124
