  22
        -42.15693776
 C          2.0637333596        2.7991679142       -0.0014309254
 C          1.7573388475        1.3336849335        0.0001014468
 C          2.7646294457        0.3850687171        0.0027756988
 C          2.4792975494       -0.9771413744        0.0050576149
 C          3.5903315275       -1.9807400249       -0.0050980628
 C          1.1553332408       -1.3823013312        0.0040541675
 C          0.1445202845       -0.4323165337        0.0014137421
 O         -1.1625344226       -0.9676806676        0.0018057779
 C         -2.2077744076       -0.1751866344       -0.0003323823
 F         -2.2965232296        0.6398274655        1.0687807176
 F         -2.2947599886        0.6363665645       -1.0721728997
 F         -3.3127053888       -0.9168326495       -0.0000289676
 C          0.4264686034        0.9175739122       -0.0003214467
 H          3.1360287652        2.9737868201        0.0008518980
 H          1.6298843273        3.2761446411        0.8760141810
 H          1.6341888661        3.2732537297       -0.8825695212
 H          3.7964922306        0.7052707131        0.0035739336
 H          4.3337649994       -1.7349658596        0.7504884328
 H          4.0875940546       -1.9762557555       -0.9746136976
 H          3.2132587922       -2.9817925878        0.1833833464
 H          0.8860872758       -2.4257704812        0.0058458967
 H         -0.3514531750        1.6643519725       -0.0012735504
