26
 energy: -32.770866526662 gnorm: 0.000044810785 xtb: 6.4.1 (23d549d)
C         4.17758371080000   -0.19079253770000   -0.07759898080000
C         3.09402390590000    0.54734987970000    0.13407453740000
C         1.70873911960000    0.10296725510000    0.06816096510000
C         1.33656630940000   -1.20822459460000   -0.23144538260000
C         0.00687788520000   -1.56289504930000   -0.27671483960000
C        -1.00921939120000   -0.63747000070000   -0.03112894330000
C        -2.40889785000000   -1.05543004100000   -0.10404602570000
C        -2.85427169620000   -2.26005303540000    0.22795400420000
C        -0.65029858970000    0.68322305690000    0.27205725970000
C        -1.67675622030000    1.75073963490000    0.54188952610000
C        -2.06278596400000    2.47145729730000   -0.75191265920000
C         0.69114098650000    1.02385627370000    0.31565068990000
H         5.16532962030000    0.23126505220000   -0.00445826850000
H         4.13132994970000   -1.23607584330000   -0.33029993160000
H         3.21731233320000    1.59467160150000    0.38428995340000
H         2.08996440360000   -1.95346437130000   -0.43398766090000
H        -0.26235096430000   -2.57741754260000   -0.53142657190000
H        -3.11362814900000   -0.31308950130000   -0.45345756290000
H        -2.20249976450000   -3.02758171450000    0.61076742590000
H        -3.89619147390000   -2.51964492610000    0.14617018660000
H        -1.25992545930000    2.48003096540000    1.24019780330000
H        -2.56475531600000    1.31875668060000    1.00525067890000
H        -1.18625112650000    2.93392902350000   -1.20040833260000
H        -2.79964178240000    3.24613757060000   -0.55086009900000
H        -2.48139655040000    1.77340938720000   -1.47350761160000
H         0.95960258690000    2.04446038640000    0.55567665610000
