  26
        -41.23420414
 C         -4.4036271350        0.7982138258        0.6023792016
 C         -3.6747953433       -0.0857506850       -0.0645215703
 C         -2.2131552262       -0.1439459056       -0.1171217889
 C         -1.6255961353       -1.4086010632       -0.0605435198
 C         -0.2580017913       -1.6052274333       -0.0676418009
 C          0.2964868355       -2.9952954227        0.0283111551
 C          0.5763580802       -0.4787540731       -0.1566299058
 C          2.0226703046       -0.6487339207       -0.1783470089
 C          2.9457567694        0.2577792503        0.1025121247
 F          2.7713430446        1.5176039834        0.4879875591
 F          4.2552295018        0.0041755174        0.0485859228
 C         -0.0087403229        0.7814906835       -0.2556904227
 C         -1.3810853584        0.9757122698       -0.2366032399
 C         -1.9086901360        2.3705872910       -0.3870167770
 H         -5.4794347129        0.7442929697        0.6107261629
 H         -3.9635119386        1.5854668459        1.1885240942
 H         -4.1741295642       -0.8933251092       -0.5878424086
 H         -2.2753764638       -2.2702568213        0.0119480775
 H         -0.5089573091       -3.7150252597        0.1498449318
 H          0.9697887639       -3.0869229689        0.8792410978
 H          0.8494460773       -3.2553715353       -0.8743024546
 H          2.4082939814       -1.6217809715       -0.4408465840
 H          0.6240896387        1.6481218580       -0.3664594063
 H         -1.2219997238        2.9671455429       -0.9839720821
 H         -2.0011457010        2.8505438006        0.5871395957
 H         -2.8862015969        2.3711857718       -0.8629334149
