  53
        -62.36548124
 C          4.6944603077       -0.3499324396       -0.1520474471
 C          3.5765238916        0.1040163214        0.4090416285
 C          2.3444595598       -0.6310909008        0.4976559887
 S          2.2744167671       -2.2988836772        0.0214099926
 C          0.5956959411       -2.4032216392        0.4619410406
 C         -0.1085332665       -3.6468799989        0.3043603472
 C          0.4064290300       -4.7492907315       -0.2344119812
 C          0.1269156248       -1.1993935431        0.9467072924
 C         -1.2787253642       -0.9834303573        1.4219102815
 C         -2.1610148228       -0.2856500666        0.3761380743
 C         -2.4195331652       -1.1404229195       -0.8654871199
 C         -3.5003469960       -2.2049048630       -0.6609628928
 C         -4.9280509876       -1.6546749441       -0.6932975601
 C         -5.3868229464       -1.2689356381       -2.0947086085
 C          1.1228274439       -0.1884804982        0.9584675248
 C          0.8942156790        1.2316772103        1.3801001373
 C          0.8336081977        2.1753685281        0.1720723711
 C          0.5349134878        3.6117644557        0.5916546017
 C          0.4714670527        4.5547912396       -0.6070873732
 C          0.1734347076        5.9936486476       -0.1927120317
 C          0.1074221647        6.9274975781       -1.3947883799
 H          5.5928553943        0.2408872032       -0.1809187175
 H          4.7408965980       -1.3279258413       -0.6017326431
 H          3.5607760954        1.0925523855        0.8482315965
 H         -1.1313924069       -3.6561467990        0.6535898166
 H          1.4188670849       -4.7781522387       -0.6017584866
 H         -0.1687211153       -5.6536236810       -0.3253729605
 H         -1.2563036054       -0.3700024186        2.3263141454
 H         -1.7271354287       -1.9382399087        1.6956583305
 H         -1.6754898609        0.6428598919        0.0738646002
 H         -3.1113540291       -0.0212777020        0.8442934496
 H         -1.4861965410       -1.6270303580       -1.1563551798
 H         -2.7141650044       -0.4900963701       -1.6905324035
 H         -3.3401101025       -2.6998256186        0.2990172496
 H         -3.4026101393       -2.9651518811       -1.4393171381
 H         -5.0045766321       -0.7860671684       -0.0361926489
 H         -5.6043073653       -2.4193839512       -0.3033584225
 H         -4.7730978177       -0.4703596581       -2.5038081046
 H         -6.4184030554       -0.9244301196       -2.0733198334
 H         -5.3248327240       -2.1247050307       -2.7637109332
 H          1.7008209912        1.5542983155        2.0437746839
 H         -0.0397379843        1.3096366899        1.9371363883
 H          0.0610215684        1.8309041681       -0.5193975185
 H          1.7835484996        2.1405580626       -0.3650555679
 H          1.3095278094        3.9560133239        1.2816173405
 H         -0.4183630762        3.6430855668        1.1257219798
 H         -0.3038104843        4.2107329269       -1.2961153718
 H          1.4240003456        4.5235459965       -1.1415242735
 H          0.9502928562        6.3394635010        0.4931919906
 H         -0.7779783407        6.0246452581        0.3435324704
 H          1.0530423521        6.9240086882       -1.9326685420
 H         -0.1036793476        7.9462697147       -1.0781730315
 H         -0.6761098344        6.6116497702       -2.0802805359
