14
 energy: -25.295578361167 gnorm: 0.000027046764 xtb: 6.4.1 (23d549d)
C        -4.20647575500000    0.14823904130000   -0.00330636710000
C        -2.99102017870000   -0.39584664850000    0.00110405370000
C        -1.77610168890000    0.37379752890000    0.00144134070000
C        -0.54940525920000   -0.17356475840000    0.00293246910000
C         0.65930997390000    0.60352547910000    0.00202173270000
C         1.87624232850000    0.07084744940000   -0.00002615740000
F         2.15553849470000   -1.22852615290000   -0.00129739820000
F         3.00743473080000    0.76976865340000   -0.00134405830000
H        -5.09969941080000   -0.45160436420000   -0.00386887070000
H        -4.34532592700000    1.21697448380000   -0.00682370690000
H        -2.87708367030000   -1.47204331960000    0.00438832170000
H        -1.88305309000000    1.45086975510000   -0.00026294180000
H        -0.43448222030000   -1.24892371250000    0.00417320410000
H         0.58868527660000    1.68022512230000    0.00252570140000
