  24
        -42.13050652
 C         -2.4489221060        3.2421661793        0.0151424429
 C         -2.8475989839        1.9758719931       -0.0027630612
 C         -1.9975752957        0.7920786001       -0.0028479366
 C         -2.5893821502       -0.4699222545       -0.0071317609
 C         -1.8274720640       -1.6226256111       -0.0055314854
 C         -0.4405232018       -1.5513293193       -0.0003228055
 O          0.3811543386       -2.6362187257        0.0018681746
 C         -0.1901688036       -3.9219873711        0.0033566465
 C          0.1850829268       -0.2834264134        0.0022480584
 C          1.6384630908       -0.2469531942        0.0067344161
 C          2.4400259358        0.8064994321       -0.0006932938
 F          2.1108866429        2.0955759163       -0.0140252606
 F          3.7701668177        0.7081283387        0.0043988168
 C         -0.6057953051        0.8578903112        0.0012027488
 H         -3.1600741812        4.0502318084        0.0141018624
 H         -1.4118127139        3.5288797415        0.0319680141
 H         -3.9096298898        1.7616944780       -0.0177730609
 H         -3.6666828266       -0.5538960309       -0.0112320859
 H         -2.3279520363       -2.5780159890       -0.0085350120
 H          0.6498686547       -4.6149623964        0.0085362449
 H         -0.7947387825       -4.0949115172       -0.8924505746
 H         -0.8016114484       -4.0897215502        0.8954737833
 H          2.1313550254       -1.2071961820        0.0163634807
 H         -0.1296294105        1.8226162107        0.0033989127
  24
        -42.13042014
 C         -3.8043349886        2.5064748402        0.0140353345
 C         -2.4945465037        2.2892686512       -0.0024644407
 C         -1.8236107506        0.9956564627       -0.0019527146
 C         -2.5049872703       -0.2199796548       -0.0039644633
 C         -1.8226127943       -1.4209083774       -0.0025912726
 C         -0.4332946938       -1.4502260795        0.0009020094
 O          0.3072414022       -2.5918706388        0.0025572699
 C         -0.3551816233       -3.8331988613        0.0025776147
 C          0.2820921918       -0.2317511948        0.0021099227
 C          1.7340814492       -0.2980810162        0.0058805209
 C          2.6075259853        0.6966524436       -0.0018602195
 F          2.3692025099        2.0053429627       -0.0155877399
 F          3.9274953708        0.5052608090        0.0031081013
 C         -0.4300980772        0.9609367229        0.0003326579
 H         -4.2041708854        3.5057628868        0.0125428805
 H         -4.5296874112        1.7111825050        0.0302574534
 H         -1.8235645494        3.1392895031       -0.0164500680
 H         -3.5832654606       -0.2372936834       -0.0074643332
 H         -2.3884068366       -2.3392146479       -0.0044178171
 H          0.4329046877       -4.5847596862        0.0052972987
 H         -0.9717261251       -3.9605478814       -0.8927052460
 H         -0.9758580687       -3.9583144581        0.8953088017
 H          2.1578984981       -1.2907158975        0.0155938817
 H          0.1067675489        1.8957998497        0.0016997483
  24
        -42.12764622
 C         -4.3150828383        2.3303867357        0.0279466070
 C         -3.0123706330        2.3320902551       -0.2293620613
 C         -2.1034246341        1.1971205536       -0.1424905765
 C         -2.5135975754       -0.0906494485        0.1991556953
 C         -1.6160749350       -1.1384915813        0.2486138137
 C         -0.2659884723       -0.9380970464       -0.0239709936
 O          0.6661449106       -1.9218013469       -0.0548306693
 C          0.2820416047       -3.2389693908        0.2548603522
 C          0.1765284005        0.3613209034       -0.3382366238
 C          1.5804312896        0.6563774130       -0.6173451715
 C          2.6326381391        0.1502868530        0.0028787902
 F          2.6515719906       -0.6855457871        1.0292963030
 F          3.8884900428        0.4777616610       -0.3094538880
 C         -0.7499329560        1.3908015812       -0.4137098042
 H         -4.9036620447        3.2267031726       -0.0652475283
 H         -4.8480473529        1.4491054586        0.3405976153
 H         -2.5420474522        3.2584083633       -0.5364014072
 H         -3.5508841820       -0.2871378854        0.4192553403
 H         -1.9788866272       -2.1226338937        0.4998788325
 H          1.1916275308       -3.8322007965        0.1780490548
 H         -0.4605199796       -3.6190858336       -0.4543676287
 H         -0.1109935032       -3.3132066315        1.2733133804
 H          1.7865061963        1.3880620408       -1.3846738702
 H         -0.3998293025        2.3795964140       -0.6745395139
  24
        -42.12763010
 C         -3.2197641785        3.2479367296       -0.2991401704
 C         -3.3391912448        1.9509837714       -0.0407058353
 C         -2.2742005556        0.9572002062       -0.0369496646
 C         -2.5832250875       -0.3711259960        0.2535555063
 C         -1.6148611409       -1.3556974424        0.2497418074
 C         -0.2881689876       -1.0439750562       -0.0286418265
 O          0.7141234782       -1.9528230985       -0.1124413571
 C          0.4324119986       -3.3069496417        0.1432595942
 C          0.0527913574        0.2978816070       -0.2907210599
 C          1.4288691815        0.7041282998       -0.5711765771
 C          2.5218070148        0.2518121690        0.0192981297
 F          2.6125845804       -0.6189935009        1.0122253224
 F          3.7472426197        0.6804621880       -0.2913214445
 C         -0.9428370093        1.2625910689       -0.3126989939
 H         -4.0740748686        3.9022783002       -0.2767784194
 H         -2.2793965561        3.7120627559       -0.5413282668
 H         -4.3191761864        1.5542099548        0.1958965249
 H         -3.6049984820       -0.6425895926        0.4770092172
 H         -1.9031771385       -2.3728411273        0.4628350421
 H          1.3821811198       -3.8272391521        0.0319682699
 H         -0.2891828962       -3.7104249585       -0.5746681889
 H          0.0589079611       -3.4536334401        1.1612209888
 H          1.5730299348        1.4771094612       -1.3116624050
 H         -0.6601704108        2.2798295260       -0.5341275852
  24
        -42.12145253
 C         -2.3348017870        3.3002585759        0.1657731459
 C         -2.8176336261        2.0848408594       -0.0619046186
 C         -2.0516132075        0.8455049465       -0.1095756510
 C         -2.7246615918       -0.3784099011       -0.0971363471
 C         -2.0274944146       -1.5655815706       -0.1047062667
 C         -0.6348484848       -1.5836298964       -0.1495643736
 O         -0.0585288758       -2.8222370613       -0.1450985139
 C          1.1052498055       -3.0539206189        0.6254698685
 C          0.0610509909       -0.3649065277       -0.2304627531
 C          1.5079753742       -0.3355363299       -0.4432010597
 C          2.3430103258        0.6002656517       -0.0238017656
 F          2.0571758610        1.6575843606        0.7292222476
 F          3.6493718364        0.5947006109       -0.2884746746
 C         -0.6635426350        0.8230966634       -0.1910019231
 H         -2.9789745151        4.1622760793        0.1899212033
 H         -1.2901893795        3.4870318803        0.3463973116
 H         -3.8832509811        1.9600147010       -0.2107995539
 H         -3.8040950592       -0.3940400798       -0.0603758092
 H         -2.5422775384       -2.5132211744       -0.0738646548
 H          0.9276514986       -3.9647347751        1.2025799780
 H          1.3110377517       -2.2318792171        1.3126140974
 H          1.9715238226       -3.2165478796       -0.0211989936
 H          1.9426582192       -1.1305790629       -1.0293510855
 H         -0.1276699588        1.7545824036       -0.2707130143
