  37
        -52.27113917
 C         -4.5254124985       -0.0805861364        1.0934218567
 C         -3.3382558757       -0.6707673417        0.3939266032
 C         -2.0917887558       -0.0758264239        0.4869856952
 C         -0.9843604730       -0.6205731576       -0.1620512121
 N          0.2671171152        0.0005322420       -0.0636016445
 C          0.3554759619        1.3962353509       -0.0578225186
 C          1.3036409610        2.0427749945        0.7353690651
 C          1.3883716866        3.4213070337        0.7355747822
 C          0.5285673099        4.1782630949       -0.0433843043
 C         -0.4180765953        3.5417759193       -0.8294203090
 C         -0.5050191675        2.1635007503       -0.8433612565
 C          1.4267961551       -0.7765624103        0.0234647542
 C          2.6013940122       -0.3703083233       -0.6100000993
 C          3.7443297315       -1.1402086868       -0.5181521584
 C          3.7361891120       -2.3275389011        0.1954177738
 C          2.5712641007       -2.7381863961        0.8225813764
 C          1.4254924503       -1.9710553760        0.7439239198
 C         -1.1395882973       -1.7869650069       -0.9080512098
 C         -2.3808422179       -2.3883073977       -0.9930786741
 C         -3.4754002028       -1.8371910994       -0.3521162737
 H         -4.2594519005        0.8421120470        1.6027286009
 H         -4.9195753627       -0.7824280551        1.8276313315
 H         -5.3192101071        0.1316266662        0.3783815187
 H         -1.9674018066        0.8246012590        1.0718800845
 H          1.9686907809        1.4559103632        1.3520476690
 H          2.1261616149        3.9085013530        1.3562785784
 H          0.5956881913        5.2556398575       -0.0378708890
 H         -1.0894464208        4.1230980468       -1.4444973931
 H         -1.2376873614        1.6697168255       -1.4648373134
 H          2.6081990417        0.5497194019       -1.1761361408
 H          4.6461481655       -0.8145114189       -1.0157439607
 H          4.6306033989       -2.9282569566        0.2619141674
 H          2.5563666840       -3.6599570841        1.3856640433
 H          0.5211270521       -2.2891039701        1.2417787060
 H         -0.2884770326       -2.2124743532       -1.4186279422
 H         -2.4955261535       -3.2914618680       -1.5745116042
 H         -4.4431188127       -2.3108384492       -0.4281610915
