23
 energy: -42.436030709747 gnorm: 0.000032627663 xtb: 6.4.1 (23d549d)
C         0.61479444830000    3.49086322940000   -0.49875880320000
C        -0.03094224640000    2.56517507130000    0.19820700010000
C         0.23060545350000    1.13508711760000    0.10983666140000
C        -0.76177330710000    0.18205500410000    0.08601189950000
C        -2.17288676610000    0.43953462320000    0.12506811510000
C        -3.14106449360000   -0.46942864800000    0.08333309790000
F        -2.99997465090000   -1.78477208580000   -0.00649294150000
F        -4.43502970500000   -0.16235188470000    0.12561312870000
S        -0.14049487210000   -1.44734925900000   -0.05837022480000
C         1.49113013970000   -0.85113065530000   -0.06153782570000
C         2.64315125510000   -1.62024342730000   -0.13433134040000
C         3.86340830790000   -0.98010481270000   -0.09030930870000
C         3.93291458890000    0.40673780760000    0.04416634200000
C         2.79042028600000    1.17079328860000    0.11370007640000
C         1.53870853080000    0.55262473220000    0.03961155810000
H         0.38325433220000    4.53679038430000   -0.39191874870000
H         1.37419092820000    3.23801127140000   -1.21889204230000
H        -0.82209294500000    2.85970897990000    0.87659374280000
H        -2.48755777040000    1.46987505900000    0.18906859290000
H         2.57513271090000   -2.69371701830000   -0.21727958880000
H         4.77348219140000   -1.55771785910000   -0.14674694210000
H         4.89959480600000    0.88459576080000    0.09978084840000
H         2.85184262120000    2.24018506200000    0.24199836730000
