  40
        -55.55563372
 C         -3.4645188007        2.1893330212        1.7506526093
 C         -2.8547824189        1.1435321302        0.8663689199
 C         -2.6045696642        1.4172821378       -0.4744998863
 C         -2.0711875630        0.4493412849       -1.3084580651
 C         -1.8167195122        0.7333351784       -2.7593449410
 C         -1.7717229680       -0.8085031761       -0.7970930581
 C         -1.9943068391       -1.0942812046        0.5435206140
 O         -1.7489999244       -2.2842870634        1.1642716728
 C         -0.9258042181       -3.2698806431        0.5755416101
 C          0.5594610811       -3.0586867635        0.8939855555
 C          1.1508329129       -1.8399447181        0.1900673484
 C          2.6021999052       -1.5824311909        0.5882245734
 C          3.2280661889       -0.4357585597       -0.2046337829
 C          2.5169552091        0.8980559403        0.0164057766
 C          3.2726812979        2.0509554520       -0.6153719833
 O          4.3427312851        1.9646400464       -1.1395587883
 O          2.6361189044        3.2388082032       -0.5415920724
 C         -2.5447893846       -0.1080968764        1.3644255464
 H         -4.5438753285        2.2169603260        1.6000013906
 H         -3.0702516318        3.1756740996        1.5144052329
 H         -3.2744985033        1.9725423498        2.7986919497
 H         -2.8355571897        2.3962875359       -0.8694164214
 H         -1.9280648995        1.7929398615       -2.9744931516
 H         -2.5244803405        0.1823859660       -3.3783969205
 H         -0.8133837127        0.4210011634       -3.0453694756
 H         -1.3592731544       -1.5473296220       -1.4665468767
 H         -1.0832601932       -3.3376927950       -0.5055415125
 H         -1.2594684529       -4.2092237493        1.0276587770
 H          1.1036873769       -3.9586022571        0.6004271694
 H          0.6614200490       -2.9379032279        1.9744580522
 H          0.5492515120       -0.9671436675        0.4451410656
 H          1.0990553478       -1.9857807373       -0.8916826955
 H          3.1886422269       -2.4871835644        0.4152480969
 H          2.6501161771       -1.3573437138        1.6562086721
 H          3.2121470930       -0.6726626079       -1.2698153609
 H          4.2736765937       -0.3202974960        0.0851901452
 H          2.4288746418        1.0994829816        1.0890396708
 H          1.5085446055        0.8751033036       -0.4062656397
 H          1.7792406520        3.1748229885       -0.0998025061
 H         -2.7212776550       -0.3514944294        2.4006709723
