34
 energy: -46.608087508344 gnorm: 0.000152055174 xtb: 6.4.1 (23d549d)
C         7.08412889430000   -0.61850380180000    0.06948375520000
C         6.14839636790000    0.32190994750000   -0.00312560270000
C         4.70746678550000    0.12054564530000   -0.00765270610000
C         3.86641925050000    1.23522705250000   -0.07487882690000
C         2.49591580320000    1.10486289020000   -0.07978292140000
C         1.89374486710000   -0.15591527920000   -0.01827240920000
C         0.46137730420000   -0.36396175880000   -0.01717563580000
C        -0.48429469860000    0.58939356320000   -0.01437159950000
C        -1.91671155420000    0.38179596960000   -0.00772264740000
C        -2.51945335170000   -0.87948215620000   -0.07147347570000
C        -3.88881921830000   -1.01787086510000   -0.05930026640000
C        -4.72936471120000    0.09596232540000    0.01740076790000
C        -6.18113601030000    0.00201791750000    0.03533191950000
C        -6.90901642700000   -1.10842890490000   -0.01294925700000
C        -4.12970360220000    1.35663407580000    0.07822493500000
C        -2.76018736300000    1.49612986290000    0.06459875860000
C         2.73801850490000   -1.27124538580000    0.04390139900000
C         4.10809502740000   -1.13983249490000    0.05067532190000
H         8.13084492380000   -0.36683881930000    0.06749706210000
H         6.85378768680000   -1.66808361940000    0.13476723130000
H         6.45584485520000    1.35935136860000   -0.06507840810000
H         4.30565779900000    2.22229073510000   -0.12405040450000
H         1.88536846800000    1.99301205560000   -0.13597539610000
H         0.16422302390000   -1.40460677380000   -0.00925588480000
H        -0.18695896520000    1.63002849160000   -0.00755636030000
H        -1.90638495850000   -1.76546108920000   -0.13538853580000
H        -4.31545840430000   -2.00786823190000   -0.11083151070000
H        -6.69056552560000    0.95670476440000    0.09564851960000
H        -6.47299071620000   -2.09072849370000   -0.07284999950000
H        -7.98477165620000   -1.07286655830000    0.00669291150000
H        -4.75533413370000    2.23674055230000    0.13669756100000
H        -2.32452122650000    2.48468777900000    0.11297838400000
H         2.29959230200000   -2.25879559270000    0.09044026400000
H         4.72189863830000   -2.02602163600000    0.10073709830000
