  27
        -49.33649552
 C         -2.5730765805       -1.9981666715        1.3430000835
 C         -2.7314269275       -0.9449797143        0.5526208814
 C         -1.6706261030       -0.0106377233        0.1719165945
 C         -2.0152436612        1.3246234825       -0.0263237015
 C         -1.0484121645        2.2627596788       -0.3372409611
 Cl        -1.5049994517        3.9111716133       -0.5843447329
 C          0.2798917656        1.8987709384       -0.4514146735
 C          0.6479842061        0.5691909032       -0.2647948581
 C          2.0558570092        0.2010143801       -0.4083143322
 C          2.7125965198       -0.6523467387        0.3602662247
 F          2.2801594067       -1.2767324653        1.4394248660
 F          3.9956033448       -0.9592616276        0.1661346689
 C         -0.3285682899       -0.3953987621        0.0214506700
 O          0.0632298416       -1.7071277312        0.1186372280
 C         -0.2842039700       -2.5181748008       -0.9964692039
 C          0.1097004307       -3.9492275415       -0.6757749203
 H         -3.4054924309       -2.6267151077        1.6112163596
 H         -1.6125972606       -2.2604676560        1.7516794503
 H         -3.7173542417       -0.6848627521        0.1865273602
 H         -3.0454106232        1.6287053183        0.0783694993
 H          1.0306170692        2.6384535342       -0.6802342094
 H          2.6181780529        0.6750804802       -1.1986551008
 H          0.2561945559       -2.1598558265       -1.8860207894
 H         -1.3616084382       -2.4485592176       -1.1965661427
 H          1.1681931831       -3.9957112551       -0.4357374576
 H         -0.0928496953       -4.5883387371       -1.5303773382
 H         -0.4545097537       -4.3067380868        0.1807858653
