  40
        -55.55700708
 C         -5.0682596342        1.1496543319        0.9169886862
 C         -3.7318193574        0.7033064943        0.4068108504
 C         -2.8689142540        1.6223073308       -0.1795720534
 C         -1.6329375508        1.2281330510       -0.6646081887
 C         -0.7270441613        2.2387066158       -1.3080649285
 C         -1.2438494262       -0.1011397373       -0.5527997653
 C         -2.0951100905       -1.0344092822        0.0274409586
 O         -1.8398241650       -2.3679898197        0.1599420322
 C         -0.5513687209       -2.8639769810       -0.1317144176
 C          0.4555902139       -2.5287419684        0.9740822765
 C          1.9021567284       -2.8232869284        0.5750996402
 C          2.5042343761       -1.8119570991       -0.4037788729
 C          2.7491419150       -0.4449546003        0.2340240380
 C          3.3281612332        0.5510028791       -0.7776262984
 C          3.5470750663        1.9050978091       -0.1280163899
 O          4.6227303014        2.3758173610        0.0973958889
 O          2.4216543629        2.5602430970        0.2058480534
 C         -3.3379509967       -0.6181893152        0.5038904022
 H         -4.9466931758        1.9352414348        1.6614255768
 H         -5.6091869322        0.3221241479        1.3675822590
 H         -5.6668318128        1.5545160147        0.1018981878
 H         -3.1678792041        2.6570524632       -0.2629477892
 H         -1.2705339461        2.8009745645       -2.0652771569
 H          0.1218939128        1.7583851629       -1.7912217145
 H         -0.3659123615        2.9561022257       -0.5702432156
 H         -0.2806574873       -0.3942630827       -0.9409561355
 H         -0.2091442549       -2.5006293314       -1.1077054954
 H         -0.6803241399       -3.9474426525       -0.2043028510
 H          0.1969775433       -3.1161505649        1.8567334318
 H          0.3418172069       -1.4783988117        1.2466629529
 H          1.9451218673       -3.8188407867        0.1279401460
 H          2.5183747161       -2.8398309735        1.4761730110
 H          1.8515789527       -1.6997698655       -1.2722249400
 H          3.4567564626       -2.2030824687       -0.7669426843
 H          3.4490354662       -0.5543444687        1.0647935609
 H          1.8132302651       -0.0550684068        0.6419044801
 H          2.6482784466        0.6618764428       -1.6276770837
 H          4.2881627467        0.1903738563       -1.1472959537
 H          1.6209816518        2.0718242107       -0.0350311308
 H         -3.9844332680       -1.3599879840        0.9460054856
