  23
        -40.16999673
 C         -2.0595710009        2.5790029193        0.0313873430
 C         -1.2008081181        1.3539783898        0.0299617019
 C          0.1780968106        1.4069461584        0.0670127783
 C          0.9576678080        0.2524678827        0.0511434656
 C          2.4316097204        0.4496847504        0.0181518020
 O          2.9884136897        1.3675399155        0.5553715432
 O          3.1375827241       -0.4542783323       -0.6963188781
 C          0.3471120224       -1.0121026790        0.0568886946
 N          1.1065235146       -2.1769231488        0.0681588717
 C         -1.0540596555       -1.0945506596        0.0060483739
 C         -1.7534632273       -2.4232302363       -0.0188782747
 C         -1.7765809452        0.0862054056       -0.0151935273
 F         -3.1267703600        0.0108027770       -0.0669074437
 H         -1.4460887362        3.4744082661        0.0608474450
 H         -2.7224611271        2.5738208463        0.8958045833
 H         -2.6845742069        2.6038861704       -0.8605089911
 H          0.6877135430        2.3576337148        0.0958707734
 H          2.5623929321       -1.0938222353       -1.1415849210
 H          1.9753928644       -2.1229485079        0.5806324558
 H          0.5824259419       -3.0084941823        0.2938438790
 H         -1.4254024928       -3.0152781002       -0.8729883968
 H         -2.8272487809       -2.2795572383       -0.0943288860
 H         -1.5522213120       -2.9857981371        0.8943480295
