  23
        -40.52806793
 C         -4.2434888489        1.2547169717       -0.0043152680
 N         -3.1900927888        0.2812905636       -0.0007270894
 C         -3.3474600918       -1.0774454813        0.0030027358
 C         -2.1366716533       -1.6988485175        0.0052826077
 C         -1.8549511758        0.5574581080       -0.0009265610
 C         -1.1501368769       -0.6738700512        0.0026958574
 C          0.2407170460       -0.6799940400        0.0027583396
 C          0.9191306376        0.5312970605       -0.0006702469
 C          2.3697995734        0.6290551649       -0.0015158663
 C          3.2672623392       -0.3450596272        0.0001426610
 F          3.0593420593       -1.6587020246        0.0033464898
 F          4.5845616510       -0.1212261437       -0.0011922669
 C          0.1941609984        1.7418242807       -0.0037808193
 C         -1.1795690941        1.7735865215       -0.0039755150
 H         -5.2056769263        0.7457766386       -0.0061850413
 H         -4.1784110344        1.8892000842       -0.8921093592
 H         -4.1829151462        1.8912074799        0.8823916267
 H         -4.3318740393       -1.5067097471        0.0037584461
 H         -1.9578448925       -2.7550976385        0.0083177134
 H          0.7679910750       -1.6194156565        0.0054471769
 H          2.7856201177        1.6266438948       -0.0040363388
 H          0.7431293379        2.6719844157       -0.0061453604
 H         -1.7122166790        2.7127754145       -0.0064239233
