  22
        -36.89603812
 C          4.0489900942        0.5893482005       -0.0984379526
 C          3.3082491551       -0.5128006257       -0.1052804103
 C          1.8550633347       -0.5772242043       -0.0242857310
 C          1.2235463026       -1.8238371429        0.0570062236
 C         -0.1468517504       -1.9314573343        0.1477494616
 C         -0.9750772114       -0.8063451136        0.1440002606
 C         -2.4183444359       -0.9581965869        0.2938499129
 C         -3.1152220959       -1.9456034205       -0.2530244729
 C         -0.3373004747        0.4403227016        0.0462395121
 N         -1.0895093308        1.6650221382       -0.0196999663
 O         -2.2465352199        1.6143344559       -0.3828047878
 O         -0.5126413512        2.6902983938        0.2828202626
 C          1.0436852586        0.5517134959       -0.0280290272
 H          5.1222347337        0.5389293401       -0.1599003568
 H          3.6273714237        1.5771315052       -0.0284033956
 H          3.7967834222       -1.4772426273       -0.1679522729
 H          1.8269833783       -2.7201873580        0.0589051174
 H         -0.6019069365       -2.9053126723        0.2434556193
 H         -2.9272774040       -0.2048565978        0.8789679525
 H         -2.6601427582       -2.6827817394       -0.8938896213
 H         -4.1776610694       -2.0284515916       -0.1072154059
 H          1.4657728952        1.5414926877       -0.1055501925
