  35
        -51.28562477
 C         -5.6148294137       -0.0078250163        0.0042451463
 C         -4.1168249202        0.0086701291       -0.0030099408
 C         -3.4051642609        0.7902539707        0.8983039204
 C         -2.0232352026        0.7873516495        0.9086424218
 C         -1.3212756741        0.0021175843        0.0002533142
 N          0.0815303490        0.0005915448        0.0002302589
 C          0.8875774262       -1.1187398930        0.0404559196
 C          2.2441419099       -0.7192884090        0.0282305687
 C          3.2501226662       -1.6753264489        0.0788554259
 C          2.8943029751       -3.0071587938        0.1490277251
 C          1.5550207924       -3.3900042249        0.1833263462
 C          0.5364211710       -2.4580073325        0.1340720337
 C          0.8902343771        1.1180317649       -0.0400171565
 C          2.2458384376        0.7153589753       -0.0275275092
 C          3.2541055434        1.6689973860       -0.0781002616
 C          2.9014631829        3.0016517393       -0.1485877037
 C          1.5630953449        3.3876585166       -0.1833138288
 C          0.5422749261        2.4581034435       -0.1340497184
 C         -2.0247685433       -0.7806979357       -0.9101183757
 C         -3.4058282547       -0.7773122323       -0.9027652694
 H         -6.0118620260        0.8899256380        0.4715804061
 H         -5.9755081994       -0.8704326302        0.5656830553
 H         -6.0054796603       -0.0817706264       -1.0084197851
 H         -3.9393785183        1.4054015263        1.6082301785
 H         -1.4814169469        1.3841936287        1.6271883586
 H          4.2878605143       -1.3774885347        0.0675568293
 H          3.6611127809       -3.7666852949        0.1869788435
 H          1.3075468126       -4.4391347453        0.2535094283
 H         -0.4983570375       -2.7630609416        0.1784033463
 H          4.2911303136        1.3686929987       -0.0665399403
 H          3.6700793804        3.7593516024       -0.1865015901
 H          1.3181157675        4.4373449107       -0.2538874591
 H         -0.4917565588        2.7655963030       -0.1788315490
 H         -1.4835416499       -1.3776857957       -1.6290020354
 H         -3.9427411611       -1.3881683160       -1.6143973523
