  27
        -32.82206203
 C         -3.8150780046       -0.8273754326        1.3469325406
 C         -2.7549830392       -0.0251331942        0.6028261461
 C         -2.4265658357       -0.6434340670       -0.7531719770
 C         -1.3435006072        0.1396609683       -1.5046722658
 C         -0.0298800817        0.0972778996       -0.7863608857
 C          0.7555313733       -1.0854279672       -0.7022050456
 C          1.9023873975       -0.9396476596        0.0051875065
 C          2.9552159027       -1.9493761321        0.2952568880
 S          2.0520883718        0.6868978451        0.5968958940
 C          0.5406633390        1.1456350240       -0.1312051879
 C          0.0474522175        2.5448795217        0.0127364633
 H         -4.0390098627       -0.3690240400        2.3074553944
 H         -3.4688985755       -1.8433500426        1.5244855929
 H         -4.7346421640       -0.8761532660        0.7671226223
 H         -1.8453139406        0.0211457441        1.2054570361
 H         -3.1119057678        0.9972383143        0.4554890440
 H         -3.3316585842       -0.6734219626       -1.3648043877
 H         -2.0895098659       -1.6717023432       -0.6050836825
 H         -1.6657217501        1.1743877797       -1.6300328440
 H         -1.2163207966       -0.2996530866       -2.4978667382
 H          0.4659407857       -2.0130145457       -1.1651928985
 H          2.6874468940       -2.9027965473       -0.1543756125
 H          3.0717031310       -2.0878050394        1.3701319551
 H          3.9171780408       -1.6296625243       -0.1053292242
 H          0.7678302287        3.1397910856        0.5684927993
 H         -0.9037333469        2.5674239047        0.5447027858
 H         -0.0991864003        3.0042688654       -0.9652803938
