  12
        -12.61036990
 C         -1.9458822091       -0.0933525028        0.0000066372
 C         -0.5305783400        0.4012848591       -0.0000110339
 C          0.5303281448       -0.3884527295       -0.0000118077
 C          1.9452055327        0.0864564225        0.0000066921
 H         -2.6477858522        0.7358708614        0.0000040185
 H         -2.1384254468       -0.7076054883        0.8790652236
 H         -2.1384369103       -0.7076221281       -0.8790375948
 H         -0.3955272795        1.4749734852        0.0000238440
 H          0.4003369152       -1.4638525203        0.0000250285
 H          1.9915411700        1.1728463201       -0.0000193150
 H          2.4696871137       -0.2876973555       -0.8792825460
 H          2.4696556854       -0.2876522236        0.8793346980
