  29
        -43.53120340
 C         -1.8968032096       -3.2357915014        0.4359794357
 C         -0.9478728840       -2.5955791791       -0.2317772426
 C         -0.6098384773       -1.1794072581       -0.0811412003
 C         -1.6002962578       -0.2052641412        0.0166527098
 O         -2.8946651519       -0.6314993847        0.0123808821
 C         -3.9327244586        0.3146818625       -0.0468406966
 C         -1.2468067149        1.1481995063        0.0815560767
 C          0.0610830607        1.5931605945        0.0544164519
 C          0.2764407451        3.0309768733        0.1120669813
 C          1.4295882266        3.6877969128        0.0439703745
 C          1.0977647156        0.6179704108       -0.0240169360
 N          2.3824295970        1.0153221652       -0.0306140448
 C          3.3360296470        0.1299151634       -0.0793865108
 C          3.1067257062       -1.2534565162       -0.1085399858
 C          1.8115901726       -1.6924248788       -0.1041585917
 C          0.7461558578       -0.7637124202       -0.0817438010
 H         -2.1001853270       -4.2788488318        0.2600789797
 H         -2.4953063924       -2.7480039927        1.1844239198
 H         -0.3573119316       -3.1354823749       -0.9624561379
 H         -4.8505556651       -0.2676797156       -0.1175401330
 H         -3.8469625257        0.9584469963       -0.9282109708
 H         -3.9712030690        0.9335195410        0.8560242978
 H         -2.0282240704        1.8903085675        0.1488863451
 H         -0.6414730207        3.6009541664        0.2158116526
 H          2.3649013048        3.1708402394       -0.0610235360
 H          1.4530517261        4.7641009486        0.0957896423
 H          4.3453283511        0.5232729762       -0.0848543528
 H          3.9355398191       -1.9445564887       -0.1232569189
 H          1.5970580517       -2.7505852761       -0.1002886558
