15
 energy: -24.922694084094 gnorm: 0.000044119753 xtb: 6.4.1 (23d549d)
C        -3.37454920440000    0.72072679240000    0.00070322160000
C        -2.62270977760000   -0.37487064280000    0.00098719070000
C        -1.18657467900000   -0.37392747370000   -0.00011633720000
N        -0.46822354760000   -1.45152215990000   -0.00023790610000
N         0.82646621600000   -1.24963513110000   -0.00062277990000
C         1.17693333010000   -0.00324805200000   -0.00077424310000
C         2.52837875290000    0.48901159380000   -0.00042698290000
C         3.58634427640000   -0.31635881230000    0.00189924200000
S        -0.20444132050000    1.08752753120000   -0.00070834730000
H        -4.44872684900000    0.66609416110000    0.00173757320000
H        -2.93862997280000    1.70687094010000   -0.00066305410000
H        -3.05893522010000   -1.36387638860000    0.00239632520000
H         2.63414436340000    1.56490713850000   -0.00178250620000
H         3.46205327100000   -1.38523243650000    0.00325007500000
H         4.58973397400000    0.07188907450000    0.00247789610000
