24
 energy: -33.659463689680 gnorm: 0.000060389080 xtb: 6.4.1 (23d549d)
C        -3.18333987220000   -0.71198013780000    0.05825330710000
C        -2.53451787940000    0.32809801570000    0.56250688700000
C        -1.16059752640000    0.73267744280000    0.25591038260000
C        -0.91974598450000    2.09620842150000    0.11143759540000
C         0.32968858050000    2.55844997610000   -0.25317586430000
C         1.37081929550000    1.66503227110000   -0.39751637700000
C         1.17006443050000    0.30031209760000   -0.19957983820000
O         2.30401938910000   -0.46395513980000   -0.30480003470000
C         2.52715451120000   -1.51394887650000    0.60981599620000
C        -0.11391093770000   -0.19058289210000    0.08017483090000
C        -0.39139480360000   -1.62808525540000    0.18234622940000
C        -0.01638984160000   -2.51704739920000   -0.72640416500000
H        -4.20817523180000   -0.91395954200000    0.32211020450000
H        -2.73057877510000   -1.38294458870000   -0.65091950300000
H        -3.05887922640000    1.00550045690000    1.22717452660000
H        -1.73424071080000    2.79132791240000    0.25474150720000
H         0.49942945670000    3.61476680390000   -0.39783774340000
H         2.36632572620000    1.99853216470000   -0.64554994530000
H         3.58656325850000   -1.47345446020000    0.87288948280000
H         2.30647074850000   -2.48617582720000    0.15967887120000
H         1.92611457710000   -1.39877163490000    1.51424624070000
H        -0.97798337740000   -1.93729032590000    1.03978477780000
H         0.52690841040000   -2.22566306080000   -1.61064369190000
H        -0.25286626560000   -3.56360177350000   -0.62891472160000
