  27
        -33.29700791
 C          2.9384304963       -1.3962845522       -0.6237348922
 C          1.6920495885       -0.6538785378       -0.2892431147
 C          0.3853312621       -1.0407566881       -0.4839636584
 N         -0.4048446798       -0.0451404936       -0.0266488235
 C         -1.8582391427       -0.0104166261       -0.0233694935
 C         -2.3814232528       -1.1767504255        0.8223329482
 C         -2.3071175791        1.3173730934        0.5821895849
 C         -2.3622598638       -0.1262211781       -1.4661565050
 N          0.3203899403        0.9619282911        0.4525518010
 C          1.5892635475        0.6213701886        0.3064680164
 C          2.6987267520        1.5135982223        0.7357673195
 H          2.6995974579       -2.3560554649       -1.0759598079
 H          3.5322292217       -1.5702562382        0.2738027505
 H          3.5492651725       -0.8229267208       -1.3212816661
 H         -0.0107482297       -1.9409626531       -0.9091969911
 H         -1.9875169526       -1.1110802318        1.8339000003
 H         -2.0823073393       -2.1316228082        0.3970656307
 H         -3.4667513449       -1.1451993421        0.8684765424
 H         -1.9291776306        1.4132886252        1.5956075107
 H         -3.3923850560        1.3689579023        0.5972557365
 H         -1.9166572746        2.1458236636       -0.0011958034
 H         -2.0669000532       -1.0747547550       -1.9078191541
 H         -1.9518690026        0.6788432004       -2.0713016455
 H         -3.4467840767       -0.0596998875       -1.4873842053
 H          2.2884766895        2.4259096056        1.1586802016
 H          3.3337626946        1.7657297896       -0.1132081510
 H          3.3171060584        1.0179323227        1.4837805106
