  22
        -32.98724727
 C         -4.3947950138       -0.4210277872       -0.8445547442
 C         -3.1124932794       -0.2992599535       -0.1026946733
 S         -1.6106454278       -0.1514084728       -0.9586371351
 C         -0.7114523843       -0.0689324617        0.5312840314
 C          0.7114531196        0.0689254583        0.5312854520
 S          1.6106573038        0.1512723690       -0.9586372232
 C          3.1124895149        0.2992917081       -0.1026952007
 C          4.3947962733        0.4210372566       -0.8445545180
 C          2.9086749586        0.2838941309        1.2430697730
 C          1.5552602426        0.1539999137        1.6077821843
 C         -1.5552711062       -0.1538790765        1.6077817456
 C         -2.9086903224       -0.2837279642        1.2430706020
 H         -4.3882377466       -1.3042278352       -1.4832013137
 H         -4.5553436934        0.4483679800       -1.4819693146
 H         -5.2226531945       -0.5005121032       -0.1438845378
 H          4.3881137743        1.3040569799       -1.4834540494
 H          4.5554956629       -0.4485176193       -1.4817221695
 H          5.2226242900        0.5008468330       -0.1438805694
 H          3.7081361837        0.3636183647        1.9588432657
 H          1.2158380466        0.1246928852        2.6270215000
 H         -1.2158554005       -0.1244826891        2.6270207622
 H         -3.7081620453       -0.3633414958        1.9588454176
