  51
        -58.14146121
 C          6.6537195696       -0.5931632678        0.9090982861
 C          5.1682917904       -0.9111608219        0.7912995868
 C          4.5297263740       -0.2124104778       -0.4065054857
 C          3.0406017954       -0.5247211809       -0.5260026129
 C          2.4063144963        0.1679633237       -1.7287946349
 C          0.8974927792       -0.0926660787       -1.8240657319
 C          0.1523408582        0.4598277667       -0.6445366337
 C         -0.0341267944        1.7959475255       -0.4522899860
 C          0.3715126951        2.9411705975       -1.3136221418
 S         -0.8631174261        2.1141875071        1.0387092351
 C         -0.9633955862        0.4186931638        1.3986685579
 C         -1.6380149605       -0.0089997197        2.6571544917
 C         -0.4003158612       -0.3346794337        0.4118010964
 C         -0.3775292503       -1.8332500748        0.4260667876
 C         -1.4003805256       -2.4888505316       -0.5150325529
 C         -2.8616921802       -2.2759170053       -0.1118927977
 C         -3.4463118262       -0.9601838857       -0.6215758601
 C         -4.8852529103       -0.7532080872       -0.1557871895
 C         -5.4447010089        0.5797225856       -0.6368591216
 H          7.0881386135       -1.1007846687        1.7672714516
 H          6.8059431440        0.4772271595        1.0302323319
 H          7.1846029644       -0.9143018989        0.0153501036
 H          4.6561610480       -0.5987009420        1.7043307070
 H          5.0355499335       -1.9911075893        0.6915485460
 H          5.0401079728       -0.5255688527       -1.3209023505
 H          4.6649208402        0.8673473448       -0.3069359897
 H          2.5300469749       -0.2026353343        0.3845489124
 H          2.9086905493       -1.6059683982       -0.6181707557
 H          2.8845988351       -0.1881872733       -2.6447526501
 H          2.5852183108        1.2417361706       -1.6568664305
 H          0.7307655343       -1.1662712212       -1.9002359223
 H          0.5180699442        0.3690053903       -2.7401466623
 H          0.4344819775        2.6328607951       -2.3552998768
 H          1.3451174830        3.3309323640       -1.0115826302
 H         -0.3512564246        3.7505384563       -1.2285857276
 H         -1.6821465090        0.8228896696        3.3563966865
 H         -1.0997957966       -0.8306903221        3.1276282360
 H         -2.6585128353       -0.3381428769        2.4579675142
 H         -0.5647338449       -2.1879753337        1.4409664980
 H          0.6202088013       -2.1734846546        0.1384010942
 H         -1.1917214911       -3.5620872766       -0.5204159208
 H         -1.2592467350       -2.1202523648       -1.5325928276
 H         -2.9466857131       -2.3201470548        0.9758289071
 H         -3.4611670289       -3.0960698476       -0.5167947499
 H         -3.4187704043       -0.9568571581       -1.7141868088
 H         -2.8374029755       -0.1254042330       -0.2766150557
 H         -4.9202833667       -0.7855698062        0.9361575496
 H         -5.5102575799       -1.5685840212       -0.5284190230
 H         -4.8414490978        1.4022687885       -0.2583681588
 H         -6.4673678667        0.7155214085       -0.2922151433
 H         -5.4395054326        0.6249002202       -1.7238267381
  51
        -58.14060622
 C          6.1895353231       -2.2840630497        0.2292589952
 C          4.9317445902       -2.3341231607        1.0888868838
 C          3.7225472301       -1.6644079737        0.4342688021
 C          3.8652251739       -0.1479141156        0.3176455317
 C          2.6511148958        0.5201022390       -0.3282568159
 C          1.4097115073        0.5170094909        0.5716071886
 C          0.2606749110        1.1998536605       -0.1053931781
 C         -0.0131299161        2.5232436273        0.0644482617
 C          0.6785714059        3.5132112467        0.9383224573
 S         -1.3684172349        3.0187828632       -0.8972170768
 C         -1.5556796735        1.4174567778       -1.5406155671
 C         -2.6479729224        1.1514664106       -2.5174160137
 C         -0.6255436315        0.5618968764       -1.0299777493
 C         -0.5679507440       -0.8930928986       -1.3921720833
 C         -1.7043223141       -1.6955650669       -0.7459755921
 C         -1.6242473725       -1.6834612256        0.7781955066
 C         -2.7664736929       -2.4472517588        1.4481592979
 C         -4.1222702424       -1.7583237614        1.3075711272
 C         -5.2062192597       -2.4893197318        2.0905503672
 H          6.9924280078       -2.8440289186        0.7036151379
 H          6.5292303218       -1.2611788347        0.0895369940
 H          5.9990730626       -2.7207555320       -0.7489503475
 H          5.1301807514       -1.8559214190        2.0509627277
 H          4.6843426499       -3.3802338460        1.2861136870
 H          2.8391415387       -1.8980153345        1.0320800552
 H          3.5724666534       -2.0894228704       -0.5614570586
 H          4.7437713758        0.0818844942       -0.2877517399
 H          4.0255263198        0.2774082178        1.3115454581
 H          2.4184500459        0.0177290771       -1.2699421219
 H          2.9005504264        1.5567527339       -0.5671676762
 H          1.6443080015        1.0345552399        1.5036350328
 H          1.1310340211       -0.5067935136        0.8191498566
 H          1.7314366931        3.5986536310        0.6694596571
 H          0.6204585548        3.2119272166        1.9851301034
 H          0.2149845087        4.4910313493        0.8355493650
 H         -2.8372410326        2.0366136974       -3.1216523740
 H         -3.5755552495        0.8940394719       -2.0030848878
 H         -2.3809189255        0.3262468403       -3.1747132622
 H          0.3890106525       -1.3138530101       -1.0838924805
 H         -0.6398317945       -0.9963457253       -2.4786974760
 H         -1.6567396500       -2.7280238968       -1.1015658663
 H         -2.6574903594       -1.2748497727       -1.0645709264
 H         -1.6278354185       -0.6492599450        1.1300370412
 H         -0.6772098298       -2.1363776331        1.0841209860
 H         -2.5395766104       -2.5501591860        2.5125099895
 H         -2.8263728600       -3.4536171225        1.0260324800
 H         -4.4106761011       -1.7181827171        0.2558635387
 H         -4.0416066800       -0.7309402918        1.6704122911
 H         -5.3085772292       -3.5125134854        1.7348783296
 H         -6.1653923074       -1.9892331433        1.9770663008
 H         -4.9585013329       -2.5196395164        3.1495632990
  51
        -58.14042300
 C          4.7809593774       -2.4409281563        0.3021540587
 C          3.2997084414       -2.5502702334       -0.0392453630
 C          2.8650486931       -1.5855718216       -1.1427772658
 C          2.9646880825       -0.1164352932       -0.7327607672
 C          2.2858064612        0.8213398634       -1.7329012618
 C          0.7591673815        0.8699021341       -1.5798821077
 C          0.3401509701        1.4728936645       -0.2710797391
 C          0.4319893826        2.8077296452       -0.0090030186
 C          0.9083797926        3.9124266294       -0.8870248803
 S         -0.0996849207        3.1792132895        1.6007682544
 C         -0.4595218973        1.5126464728        1.9151512915
 C         -1.0017563438        1.1085270704        3.2436381783
 C         -0.1748172663        0.7290363921        0.8376643029
 C         -0.4464712629       -0.7445028385        0.8202431822
 C         -1.8252742184       -1.0421362630        0.2197924427
 C         -2.1001431627       -2.5427276726        0.1663911767
 C         -3.5064109766       -2.8847218616       -0.3263131894
 C         -3.7364926884       -2.5435068968       -1.7971299791
 C         -5.1098453177       -3.0041989307       -2.2703710254
 H          5.0575406737       -3.1996371365        1.0309960779
 H          5.0119455730       -1.4663080194        0.7237713435
 H          5.3884308561       -2.5846954615       -0.5890072019
 H          2.7072245790       -2.3599426634        0.8591694152
 H          3.0868477414       -3.5719627437       -0.3645289001
 H          1.8333873282       -1.8177583316       -1.4172894617
 H          3.4804154889       -1.7528342837       -2.0304489336
 H          4.0179659188        0.1586040170       -0.6550585421
 H          2.5129877430        0.0252597446        0.2514854615
 H          2.5326187987        0.5035520997       -2.7489768567
 H          2.6788399391        1.8298935556       -1.5968904944
 H          0.3486319985       -0.1343509769       -1.6731663638
 H          0.3480589498        1.4686418447       -2.3977167071
 H          0.7479905172        3.6652450050       -1.9346420691
 H          1.9736711427        4.0972945779       -0.7383209637
 H          0.3756227621        4.8329767216       -0.6563503746
 H         -1.1197903943        1.9815329303        3.8804579217
 H         -0.3282825267        0.4081945297        3.7396332938
 H         -1.9723864205        0.6245338438        3.1355434861
 H         -0.4077244008       -1.1345106939        1.8393283228
 H          0.3173777704       -1.2612693187        0.2390028091
 H         -1.8750116886       -0.6166467455       -0.7836432054
 H         -2.5927562582       -0.5520156483        0.8231097716
 H         -1.9710767724       -2.9572521093        1.1698016325
 H         -1.3640697108       -3.0231105766       -0.4835349585
 H         -4.2412490869       -2.3557884242        0.2854258167
 H         -3.6731760242       -3.9561422144       -0.1875294361
 H         -2.9646209602       -3.0243951391       -2.4028797629
 H         -3.6530041622       -1.4654505443       -1.9438913264
 H         -5.2108955242       -4.0819626055       -2.1603118025
 H         -5.2600832804       -2.7507854496       -3.3173474015
 H         -5.8936889727       -2.5268018693       -1.6861148586
  51
        -58.13997483
 C          4.7920789893        2.3997245750       -0.6175496077
 C          4.8557788640        0.9237092920       -0.2454313410
 C          3.6134088055        0.1713954044       -0.7151404666
 C          3.6438580824       -1.3002036810       -0.3068154340
 C          2.3871367200       -2.0691678366       -0.7231531837
 C          1.2341311871       -2.0082747738        0.2915787951
 C          0.6820841770       -0.6323438137        0.5147479227
 C          1.0113534055        0.1539926681        1.5774868315
 C          1.9132234492       -0.1131878187        2.7328591864
 S          0.2467091939        1.7108258319        1.4742109776
 C         -0.5424100673        1.2786891524       -0.0123722044
 C         -1.4199765605        2.2901585090       -0.6657784156
 C         -0.2309823905        0.0072345424       -0.3881940471
 C         -0.8148292418       -0.6771399329       -1.5877234798
 C         -2.0340429480       -1.5399646739       -1.2317095298
 C         -3.2116854102       -0.7173035838       -0.7190079951
 C         -4.4290521364       -1.5921877073       -0.4294561012
 C         -5.5963795941       -0.8166469607        0.1819808296
 C         -6.2182400434        0.1899480081       -0.7792006328
 H          5.6823141562        2.9225056261       -0.2751499884
 H          3.9214708034        2.8676134713       -0.1626955125
 H          4.7180191558        2.5176432819       -1.6965406658
 H          4.9474724682        0.8291137035        0.8394921035
 H          5.7457579843        0.4718879945       -0.6905222360
 H          3.5443353789        0.2387125417       -1.8039544988
 H          2.7281604486        0.6526837250       -0.3008683186
 H          3.7760780183       -1.3795270579        0.7735842331
 H          4.5146277188       -1.7669463758       -0.7754842846
 H          2.6440292752       -3.1238596221       -0.8527400179
 H          2.0508386394       -1.6933483193       -1.6911362945
 H          1.5892968883       -2.4152176074        1.2402301073
 H          0.4349708965       -2.6607457543       -0.0667079224
 H          1.9647884032       -1.1780011597        2.9500674571
 H          1.5503137962        0.4062096552        3.6178345167
 H          2.9224648580        0.2452286044        2.5254165529
 H         -1.0002410545        3.2865232584       -0.5384814641
 H         -2.4159007973        2.2880118308       -0.2208357770
 H         -1.5206037584        2.0867186957       -1.7293181525
 H         -0.0592930333       -1.3154762586       -2.0471893879
 H         -1.1147421343        0.0666263818       -2.3283954594
 H         -1.7542327265       -2.2718786587       -0.4707998118
 H         -2.3419214149       -2.0907488771       -2.1244212778
 H         -3.4691236753        0.0352349667       -1.4656666375
 H         -2.9162246256       -0.2010351348        0.1962565654
 H         -4.1346872193       -2.3844706485        0.2638645348
 H         -4.7605030955       -2.0707703749       -1.3544635072
 H         -5.2515833504       -0.2967693722        1.0788604941
 H         -6.3650911484       -1.5299040737        0.4894137773
 H         -5.5129595967        0.9772803678       -1.0320625591
 H         -7.0927801339        0.6528243879       -0.3273382048
 H         -6.5283254743       -0.3033206476       -1.6980991336
  51
        -58.13968959
 C          4.8578224551       -2.2569362329       -1.9809712085
 C          3.8842282024       -2.8761509026       -0.9849671707
 C          2.7009098530       -1.9658776147       -0.6552029672
 C          3.1054763127       -0.7063798798        0.1085003803
 C          1.9105498839        0.0999954188        0.6173852103
 C          1.0949353325        0.7435728230       -0.5103740895
 C          0.0287127312        1.6499437552        0.0281715121
 C          0.2993593114        2.8853422963        0.5380523850
 C          1.6052728299        3.5916445574        0.6571672784
 S         -1.1391798236        3.6653897372        1.1145944196
 C         -2.1141357183        2.3089119256        0.6521751243
 C         -3.5862054723        2.3410119691        0.8853511470
 C         -1.3630619054        1.3232896119        0.0852205102
 C         -1.9661388295        0.0421151517       -0.4063756687
 C         -1.8649006703       -1.0678624301        0.6457661987
 C         -2.7252607624       -2.2877245127        0.3162268552
 C         -2.3969552938       -2.9696548808       -1.0139765877
 C         -0.9497950943       -3.4421581118       -1.1568612246
 C         -0.5464618452       -4.4768120768       -0.1131714579
 H          5.6338584261       -2.9719549078       -2.2450918814
 H          5.3383719553       -1.3769195829       -1.5616378086
 H          4.3370538861       -1.9655412768       -2.8908341936
 H          4.4167117231       -3.1244221756       -0.0637615025
 H          3.4979953727       -3.8088149963       -1.4039700450
 H          1.9908154128       -2.5299953437       -0.0454176417
 H          2.2012392759       -1.6908245137       -1.5861602686
 H          3.7167255645       -0.0660046475       -0.5301349371
 H          3.7161800073       -1.0002879608        0.9662964869
 H          2.2764366844        0.8894015307        1.2765206669
 H          1.2605174136       -0.5449003968        1.2129284388
 H          0.6391168913       -0.0329593906       -1.1231175831
 H          1.7718731958        1.3178002646       -1.1494095489
 H          2.2931789774        3.2583211939       -0.1172145338
 H          2.0651857603        3.3997414653        1.6281913343
 H          1.4624338581        4.6663824688        0.5631482186
 H         -3.8613476657        3.2524301141        1.4100011823
 H         -3.9030886969        1.4864716316        1.4829888508
 H         -4.1282537090        2.3123280622       -0.0610950072
 H         -1.4671017658       -0.2704907558       -1.3248207559
 H         -3.0187193883        0.2121107299       -0.6411244897
 H         -2.1926260049       -0.6663448968        1.6083775709
 H         -0.8228258770       -1.3667435288        0.7590365670
 H         -3.7739994389       -1.9792638663        0.2869477801
 H         -2.6252107523       -3.0126385407        1.1266368782
 H         -2.6222898718       -2.2836875749       -1.8334550171
 H         -3.0590731939       -3.8327265892       -1.1238107925
 H         -0.2751586904       -2.5873994895       -1.0981867726
 H         -0.8318642037       -3.8801927648       -2.1514262633
 H         -0.5468129764       -4.0469913971        0.8853889960
 H          0.4540963820       -4.8510816377       -0.3201988513
 H         -1.2356385819       -5.3186759723       -0.1250236817
  51
        -58.13930768
 C          3.3938702584       -3.6416085166       -0.5540556703
 C          2.5923155402       -2.5117384898       -1.1886032938
 C          3.4173000957       -1.2334117845       -1.3107695540
 C          2.6879623198       -0.1054598005       -2.0423714546
 C          1.4025115158        0.3746748038       -1.3670336143
 C          1.6301337917        0.8740594154        0.0640424613
 C          0.4570914244        1.6509119562        0.5810433967
 C          0.4192282482        3.0128304031        0.5555731151
 C          1.4438892080        3.9642085361        0.0383940908
 S         -1.0468013400        3.6213137281        1.2518939322
 C         -1.6144542848        2.0134018140        1.5735725869
 C         -2.9388351636        1.8307829230        2.2303068354
 C         -0.7199763675        1.0736448389        1.1538735193
 C         -0.9781827453       -0.3993846401        1.2654959595
 C         -2.0120911014       -0.8648304167        0.2329068620
 C         -2.4056111897       -2.3336903946        0.3970796732
 C         -1.3293765046       -3.3386751723       -0.0188409855
 C         -1.0506666436       -3.3915268598       -1.5221702545
 C         -2.2233664787       -3.9298790752       -2.3333438927
 H          2.7869486556       -4.5401438856       -0.4661940454
 H          3.7317351449       -3.3580469740        0.4408004075
 H          4.2690011767       -3.8763505669       -1.1563580626
 H          1.7067379861       -2.3222202030       -0.5811716429
 H          2.2546016583       -2.8182572060       -2.1813095757
 H          4.3341555959       -1.4597976980       -1.8616658109
 H          3.7136705308       -0.8964824049       -0.3155748094
 H          2.4428074018       -0.4418302133       -3.0532899513
 H          3.3716475189        0.7426957958       -2.1356623194
 H          0.6649864672       -0.4277738675       -1.3603406717
 H          0.9871573005        1.1926781414       -1.9614901312
 H          2.5122752784        1.5170021794        0.0770977786
 H          1.8254922909        0.0279578953        0.7249352654
 H          1.6826713878        3.7480248005       -1.0027825428
 H          2.3649100174        3.8949481560        0.6192082231
 H          1.0734313828        4.9840083018        0.1049320641
 H         -3.1266649645        2.6425438830        2.9305878905
 H         -2.9717482261        0.8861057099        2.7691368555
 H         -3.7441225514        1.8333661380        1.4936556799
 H         -1.3530147077       -0.6293717623        2.2672302030
 H         -0.0462597452       -0.9459929152        1.1274006748
 H         -1.6259556128       -0.6870287891       -0.7716534716
 H         -2.9096257247       -0.2538859580        0.3439807401
 H         -3.3098476779       -2.5224078916       -0.1840424797
 H         -2.6554337357       -2.5097288964        1.4469552608
 H         -1.6438243516       -4.3336169573        0.3070511139
 H         -0.4000206999       -3.1079915732        0.5061476279
 H         -0.1855747020       -4.0388700192       -1.6852044798
 H         -0.7863575981       -2.3983470271       -1.8893725333
 H         -2.5279273595       -4.9059991215       -1.9613183153
 H         -1.9409861648       -4.0345907197       -3.3786748818
 H         -3.0778020528       -3.2599514600       -2.2819920641
  51
        -58.13892270
 C          4.9798404198       -3.6236015907       -0.5264330284
 C          4.8997702916       -2.1948410834       -1.0498815857
 C          3.5483073962       -1.5519318833       -0.7466600784
 C          3.4778511302       -0.1143744934       -1.2575928309
 C          2.1102956903        0.5397222787       -1.0612497446
 C          1.7713656364        0.7879442757        0.4131507474
 C          0.4614539106        1.5000342857        0.5757768160
 C          0.3069512517        2.8261220268        0.3008279336
 C          1.3102489694        3.8126459861       -0.1876327411
 S         -1.3209754708        3.3493636683        0.5901627652
 C         -1.7905679542        1.7597812437        1.1015596946
 C         -3.1948492878        1.5329238958        1.5491984447
 C         -0.7468838731        0.8849553994        1.0377288635
 C         -0.8602991402       -0.5549738550        1.4426593422
 C         -0.8708405537       -1.5236399739        0.2523119423
 C         -2.0593654991       -1.3194841106       -0.6878142726
 C         -3.3785654476       -1.8762884612       -0.1467174405
 C         -3.4933262201       -3.4002919293       -0.2271234434
 C         -3.7068662724       -3.9085318755       -1.6482015647
 H          5.9485904323       -4.0620193565       -0.7546850582
 H          4.2080616416       -4.2405517158       -0.9818413486
 H          4.8403210392       -3.6432945336        0.5524383976
 H          5.0660930435       -2.1942074005       -2.1297345157
 H          5.6924980103       -1.5968500149       -0.5940177337
 H          3.3842595154       -1.5717482892        0.3322894682
 H          2.7563801833       -2.1415787208       -1.2154196984
 H          3.7138472399       -0.1123388984       -2.3250208485
 H          4.2395719827        0.4852665382       -0.7527209056
 H          1.3386879400       -0.0872566764       -1.5135006561
 H          2.1000997755        1.4953289892       -1.5881676948
 H          2.5685024461        1.3915921707        0.8571523526
 H          1.7368115467       -0.1602039647        0.9472898827
 H          1.2994934140        3.8733760019       -1.2772885207
 H          2.3119375201        3.5283159899        0.1283972555
 H          1.0853089828        4.8031514216        0.2031603345
 H         -3.7210195632        2.4825377197        1.6092361260
 H         -3.2161996165        1.0645638065        2.5333985886
 H         -3.7300952288        0.8873696686        0.8531720216
 H         -1.7717499551       -0.6901125170        2.0255918948
 H         -0.0177359786       -0.8109145205        2.0913404171
 H         -0.8751123033       -2.5457494759        0.6366304056
 H          0.0507435049       -1.3923456521       -0.3150773870
 H         -1.8401720621       -1.7945971714       -1.6455878358
 H         -2.1687913495       -0.2493307924       -0.8767210133
 H         -4.2066589613       -1.4388386810       -0.7103336154
 H         -3.4942952823       -1.5716343080        0.8950773529
 H         -4.3397269917       -3.7172844819        0.3872695164
 H         -2.5965697315       -3.8612388200        0.1910835315
 H         -4.6021919654       -3.4656395549       -2.0797556491
 H         -3.8250146314       -4.9899028438       -1.6493414717
 H         -2.8617417543       -3.6609446835       -2.2855249017
  51
        -58.13868102
 C          5.2635874625       -2.8613565245       -1.0575348722
 C          3.9712978064       -2.5793867373       -1.8151742246
 C          2.9388960783       -1.8098478226       -0.9897470708
 C          3.3510395463       -0.3662878335       -0.7064224681
 C          2.3276109589        0.3964395180        0.1352302037
 C          1.0255572852        0.6908768568       -0.6189234751
 C          0.0715467150        1.4617627953        0.2421023010
 C         -0.0022347908        2.8217927524        0.2207268620
 C          0.7492172593        3.7823798790       -0.6365374276
 S         -1.1579428861        3.4127235839        1.3702593169
 C         -1.5341655730        1.7998965515        1.8892583935
 C         -2.5481933660        1.6020655018        2.9620284742
 C         -0.8101090356        0.8712448940        1.2021375726
 C         -0.9477848883       -0.6045246179        1.4371586894
 C         -2.2510832920       -1.1710283876        0.8570429830
 C         -2.2980226050       -1.1280988904       -0.6714094072
 C         -1.4897033399       -2.2446778106       -1.3381864384
 C         -2.1880962911       -3.6063548908       -1.3263308517
 C         -3.3489064970       -3.6896800618       -2.3104868822
 H          5.9271043187       -3.4770405247       -1.6607559000
 H          5.0531649262       -3.3912970488       -0.1308389205
 H          5.7865695691       -1.9397701841       -0.8159041878
 H          3.5305255751       -3.5315530674       -2.1210526146
 H          4.1979998345       -2.0151324769       -2.7227945723
 H          2.7769375013       -2.3310597175       -0.0426185482
 H          1.9950270815       -1.8134120877       -1.5386749111
 H          3.5026987100        0.1577731882       -1.6534025523
 H          4.3016981802       -0.3651464182       -0.1702569526
 H          2.7653251523        1.3460584051        0.4525893568
 H          2.1037334608       -0.1744399571        1.0392867181
 H          0.5608142790       -0.2414408762       -0.9357214823
 H          1.2572401188        1.2702360301       -1.5147019783
 H          0.5321265391        3.6109555191       -1.6917875011
 H          1.8239003655        3.6736219050       -0.4905053714
 H          0.4680903097        4.8029061934       -0.3892957461
 H         -2.5368334804        2.4444536942        3.6509018211
 H         -2.3443394918        0.6889400347        3.5179861108
 H         -3.5524014932        1.5287904602        2.5408763378
 H         -0.9363171465       -0.7957506053        2.5141180373
 H         -0.0970295077       -1.1284714948        1.0039566846
 H         -3.0875937927       -0.5934927855        1.2531428351
 H         -2.3706162936       -2.2010458720        1.1991560465
 H         -1.9230669524       -0.1572092068       -1.0022758117
 H         -3.3365240430       -1.1989501797       -0.9983617104
 H         -0.5281556107       -2.3454608723       -0.8300478976
 H         -1.2858376066       -1.9692199337       -2.3760697800
 H         -2.5505883738       -3.8254169890       -0.3201489834
 H         -1.4558600347       -4.3754563015       -1.5846317852
 H         -4.1266778287       -2.9716862064       -2.0628522322
 H         -3.7894072494       -4.6841042539       -2.2921894566
 H         -3.0048732626       -3.4857362880       -3.3224383712
  51
        -58.13808048
 C          5.3920815563       -2.9748763261       -0.8326801165
 C          4.9314437743       -1.6499429427       -1.4276353567
 C          3.5257715422       -1.2760918501       -0.9633305829
 C          3.0687128421        0.0577754402       -1.5504086942
 C          1.6239642498        0.4124820720       -1.1984499026
 C          1.4356076772        0.7264879903        0.2901753034
 C          0.0493286052        1.1921849140        0.6321219466
 C         -0.4145364801        2.4276677520        0.2916927332
 C          0.2571900127        3.5076980077       -0.4833061681
 S         -2.0156980946        2.6975943934        0.9015770661
 C         -2.0473583491        1.1282214788        1.6436522488
 C         -3.2371670435        0.7568114346        2.4636017804
 C         -0.8970320533        0.4388265348        1.4032402938
 C         -0.6294192685       -0.9412495050        1.9257894675
 C         -0.5798378180       -2.0324564595        0.8458664368
 C         -1.9420342024       -2.5377626662        0.3667040072
 C         -2.7887333643       -1.5550100053       -0.4462626950
 C         -2.1090391266       -0.9660096142       -1.6819583219
 C         -1.6253845931       -2.0171977431       -2.6736008693
 H          6.3932073656       -3.2232004406       -1.1774635483
 H          4.7194003359       -3.7784845279       -1.1248509803
 H          5.4073055551       -2.9204983067        0.2538601387
 H          4.9456864111       -1.7177865898       -2.5179543122
 H          5.6282358721       -0.8600987927       -1.1373661793
 H          3.5179601943       -1.2247758259        0.1269214649
 H          2.8276091226       -2.0609821864       -1.2649906823
 H          3.1586614692        0.0082829309       -2.6387681527
 H          3.7329006619        0.8529604869       -1.2024964604
 H          0.9771126783       -0.4174053665       -1.4890107483
 H          1.3214292314        1.2815637195       -1.7848435037
 H          2.1463216102        1.5118812101        0.5668843698
 H          1.6737478816       -0.1564212684        0.8810289009
 H          0.0344664519        3.4203845937       -1.5481762939
 H          1.3366800644        3.4564786413       -0.3546132611
 H         -0.0915929996        4.4828249294       -0.1491191276
 H         -4.1312032801        1.2311843209        2.0637838002
 H         -3.1085342232        1.0985997613        3.4924535493
 H         -3.3910143213       -0.3195022163        2.4799859987
 H         -1.3849001349       -1.2059353060        2.6665240695
 H          0.3343397807       -0.9270096481        2.4438883976
 H         -0.0470241244       -2.8902950792        1.2670165075
 H         -0.0017463765       -1.6784945007       -0.0050384862
 H         -2.5267185311       -2.8485051204        1.2375823765
 H         -1.7720127203       -3.4330100247       -0.2365458584
 H         -3.0987611250       -0.7276362654        0.1898374098
 H         -3.6931284309       -2.0830250214       -0.7621706652
 H         -1.2749901972       -0.3357215407       -1.3716121859
 H         -2.8307501000       -0.3147929079       -2.1817622503
 H         -0.8321488601       -2.6260852400       -2.2467188396
 H         -1.2388664693       -1.5390947246       -3.5714410503
 H         -2.4439098763       -2.6739645708       -2.9613341629
  51
        -58.13744160
 C          3.4287931658       -3.6678625651        0.8257698166
 C          3.1089218587       -2.2458958013        1.2697371857
 C          2.9956090475       -1.2886975135        0.0854274415
 C          2.5407188424        0.1026306293        0.5227315786
 C          2.6402638058        1.1449470854       -0.5904630390
 C          1.5199535049        1.0599420688       -1.6355082863
 C          0.1732902719        1.5252254756       -1.1537292261
 C         -0.0498263887        2.8014531730       -0.7277188702
 C          0.8852435241        3.9578358034       -0.6265114906
 S         -1.7125844917        3.0537383104       -0.3055913364
 C         -2.1227984833        1.4307750535       -0.7605960142
 C         -3.5534351298        1.0232522643       -0.6695536813
 C         -1.0271745813        0.7362441396       -1.1814732113
 C         -1.0987486284       -0.6741711676       -1.6906501395
 C         -0.8670771972       -1.7436275335       -0.6141117036
 C         -2.0048265831       -1.8148886354        0.4006751573
 C         -1.9530041595       -3.0579350266        1.2907350516
 C         -0.6929677922       -3.1890502612        2.1458553960
 C         -0.5037177229       -2.0307630743        3.1182334006
 H          3.5110321926       -4.3287138372        1.6856966762
 H          4.3696465358       -3.6954154539        0.2800480412
 H          2.6456892681       -4.0504635092        0.1739268829
 H          3.8921068746       -1.8911757991        1.9439906981
 H          2.1715706185       -2.2418377291        1.8285655862
 H          2.2962353254       -1.7010749366       -0.6447233984
 H          3.9702207273       -1.2108516438       -0.4034793730
 H          3.1726383157        0.4230661640        1.3552656052
 H          1.5128806097        0.0634184925        0.8903241919
 H          3.5984395303        1.0210258246       -1.1021107879
 H          2.6371260554        2.1362765979       -0.1407303766
 H          1.4513568269        0.0337756871       -1.9928202513
 H          1.8068377202        1.6842278615       -2.4890564387
 H          1.6594409130        3.8916475069       -1.3887852293
 H          1.3633022540        3.9991182647        0.3537002004
 H          0.3369586362        4.8878838038       -0.7655838278
 H         -4.1947928517        1.8794288684       -0.8708409348
 H         -3.7952899720        0.6517906038        0.3267605272
 H         -3.7808156221        0.2403688886       -1.3896007592
 H         -0.3550203535       -0.8043496831       -2.4798905404
 H         -2.0786705450       -0.8418023669       -2.1437510965
 H          0.0704365963       -1.5351757943       -0.1003379061
 H         -0.7728336533       -2.7138376017       -1.1102093909
 H         -2.9552293193       -1.8355684722       -0.1379134304
 H         -1.9956655900       -0.9166281076        1.0182632902
 H         -2.0350188108       -3.9460125677        0.6579677954
 H         -2.8247252031       -3.0444261303        1.9504770475
 H          0.1796345105       -3.2720601568        1.4967077345
 H         -0.7628733836       -4.1197821651        2.7148891798
 H         -0.3202335273       -1.0991079698        2.5887212178
 H          0.3445687229       -2.2202963877        3.7729934332
 H         -1.3901716211       -1.9049852662        3.7365455689
