  22
        -29.86998161
 C          3.6512424488        0.0073319409        0.2606376026
 C          2.5280510049       -0.4551906476       -0.2717717998
 C          1.2055023690        0.1436812084       -0.0850391051
 C          1.0700959158        1.5242536813        0.0020350840
 C         -0.1741337666        2.1134050050        0.1270773323
 C         -1.3028660112        1.3190814407        0.1700228721
 C         -1.2125078968       -0.0683553644        0.0992929553
 C         -2.4261099579       -0.8795701410        0.1966084133
 C         -3.6069903230       -0.5404939619       -0.3021618996
 C          0.0548308503       -0.6675219991       -0.0288040277
 N          0.1750617728       -2.0353209026       -0.1704311008
 H          4.6032078968       -0.4582062041        0.0689611677
 H          3.6619553921        0.8614998639        0.9168380766
 H          2.5648604507       -1.3295322072       -0.9109398739
 H          1.9550868196        2.1399181885       -0.0556494957
 H         -0.2627477335        3.1875862224        0.1893714303
 H         -2.2761242454        1.7713315051        0.2875794970
 H         -2.3404556881       -1.8164371523        0.7378849190
 H         -3.7466751174        0.3645094746       -0.8687015520
 H         -4.4759353738       -1.1637953212       -0.1761608039
 H         -0.6325785407       -2.5844890658        0.0715593343
 H          1.0535121087       -2.4395819435        0.1069141093
