  21
        -45.28629133
 C          3.0835794742       -2.4753711752       -0.0143198302
 C          2.6468605796       -1.2181768526        0.0056872522
 C          1.2566474676       -0.8533996998        0.0218832837
 S         -0.0034332860       -2.0485175512        0.0004680271
 C         -1.2597682595       -0.8495567547       -0.0210681871
 C         -2.6510376336       -1.2102064331       -0.0051001938
 C         -3.0914538103       -2.4661422683        0.0123104583
 C         -0.7101088660        0.4167081874       -0.0102361958
 N         -1.4850027763        1.6192626633        0.1419502870
 O         -2.5544091575        1.6772466725       -0.4193046991
 O         -1.0195167875        2.4624261898        0.8722579791
 C          0.7109340909        0.4144480519        0.0109382739
 N          1.4902870749        1.6142869694       -0.1418998400
 O          2.5574322360        1.6705044052        0.4236821313
 O          1.0308160139        2.4560829761       -0.8774792240
 H          4.1345870015       -2.7005355203       -0.0198755286
 H          2.4046809343       -3.3132680951       -0.0208912991
 H          3.3426900200       -0.3905888860        0.0318958244
 H         -3.3444160103       -0.3804731811       -0.0289419608
 H         -2.4150275797       -3.3060354269        0.0165233510
 H         -4.1431229777       -2.6882129784        0.0179654494
  21
        -45.28280881
 C          3.2988389689       -2.3752023227        0.0354008026
 C          2.7797141505       -1.1505958108       -0.0261988595
 C          1.3700319165       -0.8781212404        0.0281571032
 S          0.1971784297       -2.1486816251        0.1220047922
 C         -1.1489222210       -1.0431459225        0.0753325777
 C         -2.4742635277       -1.6082727089        0.1756729064
 C         -3.6142503419       -1.0357334522       -0.2021404286
 C         -0.6908428829        0.2495820002       -0.0013925306
 N         -1.5244665763        1.4322479422        0.1254101809
 O         -2.3699009854        1.6223797143       -0.7101474797
 O         -1.3188027116        2.1022295229        1.1070956994
 C          0.7280194596        0.3468734018       -0.0259732900
 N          1.3784717496        1.6076904165       -0.2111355197
 O          2.5349554123        1.7162200342        0.1299367381
 O          0.7149471415        2.4784478545       -0.7317385865
 H          4.3613048169       -2.5328410737       -0.0059159568
 H          2.6786475491       -3.2520206125        0.1348324242
 H          3.4167756857       -0.2807347362       -0.1066141464
 H         -2.4834827659       -2.6171543667        0.5690708972
 H         -3.6621166474       -0.0575851931       -0.6481895881
 H         -4.5479751031       -1.5569362823       -0.0822412744
  21
        -45.27816811
 C          3.7500021546       -0.9353628122       -0.1250280357
 C          2.6148572562       -1.5815154790        0.1307003688
 C          1.2666103949       -1.0768061448        0.0219691187
 S         -0.0036950325       -2.2616736341       -0.0006051001
 C         -1.2701311365       -1.0726817582       -0.0225989004
 C         -2.6200495401       -1.5729577740       -0.1311763283
 C         -3.7528663492       -0.9236537409        0.1268825714
 C         -0.7127037882        0.1879054497       -0.0070124150
 N         -1.4223805539        1.4337648690       -0.1638234045
 O         -2.4108615816        1.6240057190        0.5007615739
 O         -0.9642345609        2.1922650770       -0.9873920497
 C          0.7132747386        0.1855804429        0.0067998839
 N          1.4270540660        1.4290736554        0.1639948346
 O          2.4157847823        1.6164715977       -0.5010157704
 O          0.9716736155        2.1886538442        0.9880955952
 H          4.6946279761       -1.4355680978        0.0010052048
 H          3.7819462962        0.0828382856       -0.4703066300
 H          2.6507218673       -2.6231036839        0.4268722258
 H         -2.6594623110       -2.6138931547       -0.4292434722
 H         -3.7811009927        0.0940442086        0.4740466116
 H         -4.6992242589       -1.4206231536        0.0009676283
  21
        -45.27776070
 C          3.7625816475       -1.0010855966        0.0753308714
 C          2.6137683139       -1.6122826244       -0.2068055005
 C          1.2736801169       -1.0907842595       -0.0906960951
 S         -0.0047858121       -2.2633254017       -0.1886498491
 C         -1.2539522202       -1.0642107108       -0.0829621064
 C         -2.6361569241       -1.4790026098       -0.0308047895
 C         -3.6213404315       -0.8091215555        0.5580238488
 C         -0.6901936951        0.1848361938       -0.0114145379
 N         -1.4606135105        1.4105324302        0.0708001693
 O         -2.2565967258        1.6188294897       -0.8082963978
 O         -1.2569837686        2.1013223515        1.0401561569
 C          0.7320962668        0.1788050399        0.0021148063
 N          1.4375992919        1.4302876733       -0.0307928711
 O          2.4714488370        1.5336244316        0.5851022951
 O          0.9230528330        2.3018937568       -0.6955772243
 H          4.6956504864       -1.5180747093       -0.0683275723
 H          3.8163000601        0.0030054205        0.4565001360
 H          2.6308236657       -2.6421869461       -0.5435930772
 H         -2.8296589958       -2.4406676971       -0.4869334810
 H         -3.4760668095        0.1253981770        1.0712029761
 H         -4.6255255098       -1.1936264927        0.5532731269
