  21
        -45.28629133
 C          3.0835794742       -2.4753711752       -0.0143198302
 C          2.6468605796       -1.2181768526        0.0056872522
 C          1.2566474676       -0.8533996998        0.0218832837
 S         -0.0034332860       -2.0485175512        0.0004680271
 C         -1.2597682595       -0.8495567547       -0.0210681871
 C         -2.6510376336       -1.2102064331       -0.0051001938
 C         -3.0914538103       -2.4661422683        0.0123104583
 C         -0.7101088660        0.4167081874       -0.0102361958
 N         -1.4850027763        1.6192626633        0.1419502870
 O         -2.5544091575        1.6772466725       -0.4193046991
 O         -1.0195167875        2.4624261898        0.8722579791
 C          0.7109340909        0.4144480519        0.0109382739
 N          1.4902870749        1.6142869694       -0.1418998400
 O          2.5574322360        1.6705044052        0.4236821313
 O          1.0308160139        2.4560829761       -0.8774792240
 H          4.1345870015       -2.7005355203       -0.0198755286
 H          2.4046809343       -3.3132680951       -0.0208912991
 H          3.3426900200       -0.3905888860        0.0318958244
 H         -3.3444160103       -0.3804731811       -0.0289419608
 H         -2.4150275797       -3.3060354269        0.0165233510
 H         -4.1431229777       -2.6882129784        0.0179654494
