  53
        -62.35759095
 C          4.6857587148       -0.2652691414       -0.5995865994
 C          3.7365956917        0.1028794718        0.2563126357
 C          2.4468543878       -0.5264063230        0.3731611931
 S          2.1873999340       -2.1040331825       -0.3058812029
 C          0.6051508880       -2.1970228686        0.4067940827
 C         -0.1261867834       -3.4326976720        0.1938617675
 C         -0.7807799959       -4.1300595191        1.1134485794
 C          0.2833084408       -1.0428040570        1.0794268110
 C         -1.0440246427       -0.8355314393        1.7485395206
 C         -2.0610084185       -0.1088807417        0.8588056675
 C         -2.3548042464       -0.8680968415       -0.4314121101
 C         -3.4127867772       -0.1594559446       -1.2736782688
 C         -3.6544151324       -0.8311372500       -2.6256496972
 C         -4.2855540643       -2.2132393205       -2.5044151841
 C          1.3290023243       -0.0776432940        1.0416820980
 C          1.2700435825        1.2872320653        1.6656843853
 C          1.4812105604        2.4328163389        0.6624433170
 C          0.3160907444        2.6279290868       -0.3090351962
 C         -0.8524432799        3.4155266283        0.2901176402
 C         -0.6030949621        4.9231510402        0.3767882693
 C         -0.6520767945        5.6156153058       -0.9801091480
 H          5.6444633088        0.2218384216       -0.6252843344
 H          4.5286713674       -1.0665376520       -1.3027604271
 H          3.9235946536        0.9107216910        0.9519721653
 H         -0.0516932526       -3.8261067802       -0.8136615022
 H         -0.8310886242       -3.8270283523        2.1453077071
 H         -1.2777744360       -5.0516669945        0.8635618385
 H         -0.9014176974       -0.2660847567        2.6697700911
 H         -1.4634145595       -1.8023178625        2.0193473260
 H         -1.6940517297        0.8862085020        0.6139529257
 H         -2.9886129111        0.0093826767        1.4249421242
 H         -2.6901147646       -1.8759683615       -0.1819568256
 H         -1.4362378043       -0.9592946669       -1.0153250579
 H         -3.0899806892        0.8705665423       -1.4481255250
 H         -4.3528718153       -0.1199946168       -0.7178693498
 H         -2.7054496444       -0.9119335129       -3.1608043913
 H         -4.3143832298       -0.1930626659       -3.2186729857
 H         -3.6140318098       -2.9062433340       -2.0044131208
 H         -4.5114388643       -2.6127238539       -3.4906592905
 H         -5.2119574378       -2.1595540622       -1.9363171271
 H          2.0517180102        1.3543088271        2.4299043919
 H          0.3119599200        1.4220226068        2.1662338936
 H          2.3836836582        2.2361001174        0.0832910162
 H          1.6441353840        3.3554674612        1.2233379748
 H         -0.0282441162        1.6462516292       -0.6408898320
 H          0.6780540402        3.1529254085       -1.1942707240
 H         -1.0623839392        3.0405546347        1.2945698312
 H         -1.7468240692        3.2501786877       -0.3161913583
 H          0.3655013826        5.1118250201        0.8436763721
 H         -1.3676006138        5.3640691707        1.0212607150
 H          0.1313688230        5.2481390927       -1.6380662368
 H         -0.5168911030        6.6883712196       -0.8614738521
 H         -1.6125411715        5.4423385914       -1.4611805360
