  21
        -29.38022994
 C         -2.3897895217        1.5351479652       -0.0092658664
 C         -1.1405529743        0.7126110280       -0.0018537286
 N          0.0164668724        1.3719732136        0.0032347929
 C          1.1498571213        0.6983528621        0.0048762222
 C          2.4272362453        1.4790241219        0.0021155433
 C          1.1302303996       -0.7115779066        0.0098755356
 N          2.2750382468       -1.4619510582       -0.0561129435
 N         -0.0218383486       -1.3746910439        0.0147754138
 C         -1.1570591462       -0.6826301730        0.0022765970
 C         -2.4276231081       -1.4703951113        0.0020847089
 H         -2.1229988997        2.5878944638       -0.0113663037
 H         -2.9957835561        1.3199276096        0.8700487277
 H         -2.9876625591        1.3144401807       -0.8926828422
 H          2.1927249894        2.5384824178       -0.0395322621
 H          3.0353373997        1.2100353780       -0.8605978671
 H          3.0035003323        1.2803567252        0.9065998087
 H          3.1199859551       -1.0545211600        0.3065158714
 H          2.1427924427       -2.4441851026        0.1253610272
 H         -2.1934820346       -2.5308545661        0.0090466370
 H         -3.0174584909       -1.2371668071       -0.8831781552
 H         -3.0260924337       -1.2266768001        0.8788281806
