  24
        -37.20413662
 C          3.2060361536        1.7632629413       -1.2636593117
 C          2.0051523390        1.2636988172       -0.9933260158
 C          1.7548150332        0.0237069309       -0.2873009911
 C          2.7344918963       -0.9710290257       -0.0125368593
 C          2.2335391367       -2.0555228898        0.6209955606
 S          0.5437617374       -1.9208235101        0.9189039033
 C          0.5022710756       -0.3585836738        0.1494728861
 C         -0.7270642407        0.3883670656        0.1218528844
 S         -0.7471443282        2.0334568524        0.7024018040
 C         -2.4514635847        2.1241244997        0.5019378669
 C         -2.9729384402        0.9666505551        0.0317991122
 C         -1.9969074261       -0.0393169445       -0.2017693952
 C         -2.3494300007       -1.3245963411       -0.7838431911
 C         -1.5824486925       -2.0364972931       -1.5987143734
 H          3.3174171101        2.6890532410       -1.8007498546
 H          4.1170857077        1.2801864096       -0.9549406853
 H          1.1217414239        1.8018663383       -1.3111688584
 H          3.7671550116       -0.8779520750       -0.2941574386
 H          2.7496113804       -2.9405273307        0.9365700996
 H         -2.9598918284        3.0360366586        0.7445922720
 H         -4.0199684145        0.8218298420       -0.1679884899
 H         -3.3503415961       -1.6652989019       -0.5496112324
 H         -0.5985832037       -1.7086806716       -1.8897125965
 H         -1.9179230991       -2.9716733098       -2.0122607703
