  20
        -32.77518748
 C          3.6783971053        0.1905285734        0.0244501987
 C          2.1843138046        0.1680205768        0.0090010943
 C          1.4797791267       -1.0310398812       -0.0431970890
 C          0.0916982865       -1.0301726124       -0.0611959004
 C         -0.6522130000       -2.3291312854       -0.1644809974
 C         -0.5472816802        0.2162567254       -0.0165108241
 C         -2.0241481998        0.4124787241       -0.0223046157
 O         -2.5736990552        1.2419682460       -0.6899054714
 O         -2.7305022433       -0.3783673694        0.8138103868
 C          0.2500880204        1.3616267421        0.0087150324
 N          1.5648019452        1.3421723410        0.0307229842
 H          4.0583997937       -0.3783526013        0.8712542461
 H          4.0239735516        1.2172220429        0.0939327152
 H          4.0706608793       -0.2586419784       -0.8864865840
 H          2.0173790163       -1.9670260019       -0.0855756205
 H         -0.0717733515       -3.0394370306       -0.7497278603
 H         -1.6219132955       -2.2018750171       -0.6400761017
 H         -0.7985818743       -2.7688285955        0.8242929889
 H         -2.1654522430       -0.9737509417        1.3226917764
 H         -0.2164742821        2.3372977332        0.0200744810
