  35
        -43.37096298
 C         -2.0943036189       -3.4590778686        0.0653050583
 C         -2.1414722340       -2.3155369744        0.7442986155
 C         -1.5508541012       -1.0737961122        0.3228737318
 C         -0.8518811586       -0.7688282940       -0.8151623338
 C         -0.4039188365        0.5664559038       -0.8862236597
 C          0.4641396826        1.0632014643       -2.0021382518
 C          1.7038028659        0.1920918627       -2.2536367595
 C          2.8561894322        0.4562057820       -1.2819566427
 C          2.5791932573        0.1151899016        0.1825522875
 C          2.3473882592       -1.3720504318        0.4367818703
 C          2.0742863937       -1.6486215065        1.9098704125
 C         -0.8019883580        1.3072068030        0.2048032725
 C         -0.6112041298        2.7005221959        0.5352133382
 C         -0.5859838192        3.7124968298       -0.3263141936
 S         -1.6743611791        0.3233099769        1.3474365952
 H         -2.5569836719       -4.3531492656        0.4438463076
 H         -1.5962762378       -3.5425383687       -0.8850469830
 H         -2.6511607702       -2.2777792788        1.6984786200
 H         -0.6734618488       -1.4871985471       -1.5954113493
 H          0.7938445952        2.0796461119       -1.7871754279
 H         -0.1353842307        1.0882451252       -2.9177177724
 H          2.0680640481        0.4101402454       -3.2611591097
 H          1.4350745655       -0.8633644781       -2.2296132257
 H          3.1244213128        1.5144406212       -1.3439012692
 H          3.7225008232       -0.1209186860       -1.6173487544
 H          1.7151000879        0.6801560826        0.5319850163
 H          3.4396668828        0.4388103588        0.7746381264
 H          3.2257202997       -1.9363317393        0.1136458103
 H          1.4927523593       -1.7191284054       -0.1449835718
 H          2.9126996187       -1.3268381023        2.5241984153
 H          1.9119423631       -2.7110632329        2.0770520157
 H          1.1853924686       -1.1126437492        2.2361188222
 H         -0.5332114040        2.9052765126        1.5965424557
 H         -0.7307166063        3.5764819041       -1.3837984934
 H         -0.4433883117        4.7245565911        0.0111851189
