  31
        -38.13513846
 C         -3.3977186246       -1.7716237425        1.0178452850
 C         -2.2901114352       -0.8938621839        0.5547809256
 C         -1.1036004263       -0.6382683852        1.1499663465
 C         -0.2413877480        0.2559144258        0.4377636519
 C          1.0844420565        0.5820728435        1.0932013991
 C          1.8756900691       -0.7023465255        1.4028895193
 C          2.4625400705       -1.3159150959        0.1374407053
 C          3.4259524604       -0.3333100308       -0.5168312420
 C          2.6811994760        0.9502991974       -0.8635656117
 C          2.0291659321        1.5526558746        0.3785588223
 C         -0.8308216143        0.7042280017       -0.7067301251
 C         -0.4437984233        1.6610786221       -1.7865315138
 S         -2.4120101105       -0.0136498614       -0.9310598219
 H         -3.1390029518       -2.2217982336        1.9735373363
 H         -3.5878068309       -2.5652752832        0.2953322555
 H         -4.3184182958       -1.2002993288        1.1350181509
 H         -0.8435616694       -1.0624041960        2.1042463717
 H          0.8196314387        1.0418945685        2.0571028876
 H          1.2435992459       -1.4343232623        1.9047800259
 H          2.6912852675       -0.4480411483        2.0851130609
 H          1.6543848840       -1.5555538576       -0.5574543745
 H          2.9814411874       -2.2446995998        0.3849312612
 H          3.8567544057       -0.7694052050       -1.4207167878
 H          4.2451131950       -0.1136915131        0.1725859678
 H          1.9229708321        0.7150011019       -1.6073971455
 H          3.3689835038        1.6785846386       -1.3001396517
 H          1.5083366251        2.4788683359        0.1335833382
 H          2.8209888775        1.8136468635        1.0872837081
 H          0.2472790009        2.4203320361       -1.4381918533
 H         -1.3391614435        2.1581803017       -2.1578253229
 H          0.0081248446        1.1363261647       -2.6303056757
