  53
        -62.35657099
 C          2.6697832057        4.5245879573        2.0192585787
 C          1.7172905300        3.7040961191        1.5846963607
 C          1.7811311832        2.9346504811        0.3735023457
 C          0.8262528922        2.0819492423       -0.1170302762
 C          1.1635668722        1.4531328078       -1.3315008027
 C          0.2344139477        0.4845739936       -1.9931161476
 C          0.5649776438       -0.9686624967       -1.6240676891
 C          0.3319766242       -1.2556984311       -0.1432046151
 C          0.6046444057       -2.7188413791        0.1966345087
 C          0.5074355304       -3.0244719246        1.6927012836
 C         -0.8570262586       -2.7336641558        2.3205462036
 C         -1.9892518734       -3.5511341583        1.7032443919
 C         -3.3184363589       -3.3921478063        2.4428577818
 C         -3.8771346580       -1.9666735057        2.4641591943
 C         -4.0742975822       -1.3258643676        1.0895577034
 C         -5.0653105818       -2.0744151385        0.2015997731
 C         -5.3139734712       -1.3334882206       -1.1069648208
 C          2.4093505721        1.8333580751       -1.7866137657
 C          3.1771919879        1.5082897389       -2.9603923926
 C          2.9520772386        0.5634157349       -3.8710407640
 S          3.1459524732        2.9802215000       -0.6947779230
 H          2.5668156289        5.0772856332        2.9360457723
 H          3.5831932082        4.6655204585        1.4650707488
 H          0.8047341882        3.5731091338        2.1531031379
 H         -0.1105174167        1.9135217188        0.3865042841
 H          0.2795229889        0.6111193957       -3.0761425922
 H         -0.7868038928        0.7054706860       -1.6729530491
 H          1.6083219108       -1.1785467412       -1.8681757733
 H         -0.0619955093       -1.6351374253       -2.2222877592
 H         -0.7009784898       -1.0053630956        0.1056197166
 H          0.9854176458       -0.6188791982        0.4571935696
 H          1.6139335451       -2.9735576370       -0.1376331469
 H         -0.0885006486       -3.3558545899       -0.3561529426
 H          1.2628393277       -2.4352376602        2.2191765922
 H          0.7484325411       -4.0797019075        1.8455021743
 H         -1.0747527201       -1.6694440831        2.2307469081
 H         -0.7983603459       -2.9652543100        3.3874453316
 H         -1.7100146247       -4.6080876503        1.7237882626
 H         -2.1231403859       -3.2700814429        0.6588584415
 H         -3.1872522683       -3.7185386337        3.4780430419
 H         -4.0535317254       -4.0577528914        1.9855512259
 H         -3.2118840395       -1.3308770579        3.0521841661
 H         -4.8408070689       -1.9891824515        2.9800459128
 H         -3.1153050806       -1.2516886544        0.5735661106
 H         -4.4402855369       -0.3061505303        1.2389562224
 H         -6.0101316799       -2.1931565662        0.7372020579
 H         -4.6815692841       -3.0712107966       -0.0217221675
 H         -5.7230676877       -0.3435891527       -0.9150664264
 H         -6.0180986039       -1.8800957694       -1.7301745122
 H         -4.3850758977       -1.2165733225       -1.6618988988
 H          4.0552533839        2.1331338552       -3.0784723048
 H          2.1273775572       -0.1224589040       -3.8281424899
 H          3.6197067568        0.4472595942       -4.7076975841
