  53
        -62.35980107
 C          5.6279141037        4.0592683031        0.8938706775
 C          4.3045599525        4.1963125858        0.8547183311
 C          3.3942476535        3.2903223303        0.2077570573
 C          3.6395263731        2.1264673734       -0.4738090517
 C          2.4870797035        1.5031928550       -0.9876296405
 C          2.5607376544        0.2015721635       -1.7237026184
 C          2.6101575558       -0.9903066652       -0.7564545513
 C          1.3059706874       -1.1671282280        0.0151568245
 C          1.3551671904       -2.3697183441        0.9544897901
 C          0.1059956835       -2.4990963186        1.8269284413
 C         -1.1632273693       -2.7834839927        1.0263895275
 C         -2.3645960253       -3.0271867730        1.9370510891
 C         -3.6377468248       -3.3866452364        1.1696803542
 C         -4.1742086327       -2.2328965778        0.3233721795
 C         -5.5613157367       -2.5077232524       -0.2582605596
 C         -5.5705417014       -3.6195720208       -1.3053669094
 C         -6.9457896147       -3.7793351059       -1.9422283259
 C          1.3328597382        2.1982047422       -0.6901922111
 C         -0.0213058918        1.8729343330       -1.0437676323
 C         -1.0973181595        2.5430465019       -0.6394712142
 S          1.6915096571        3.6338913976        0.2275313502
 H          6.2497574084        4.7787824919        1.3962893346
 H          6.1325726164        3.2305941626        0.4283336212
 H          3.8376069669        5.0467447812        1.3347512527
 H          4.6270630107        1.7227866734       -0.6105068398
 H          3.4683424453        0.1983227592       -2.3320988333
 H          1.7074839176        0.0882126944       -2.3938820803
 H          3.4333307098       -0.8455996727       -0.0528596262
 H          2.8155425881       -1.8982411018       -1.3286931614
 H          0.4903640885       -1.2963418344       -0.6981045942
 H          1.1022098089       -0.2658701473        0.5972278159
 H          2.2277530274       -2.2724839058        1.6055528574
 H          1.4822166008       -3.2831091292        0.3679018138
 H         -0.0290413536       -1.5785632059        2.3997895892
 H          0.2621370710       -3.3116896485        2.5412723460
 H         -1.0037573831       -3.6637171996        0.3985346299
 H         -1.3749303181       -1.9365453121        0.3742525784
 H         -2.5456655934       -2.1344420225        2.5406120408
 H         -2.1267565334       -3.8447220339        2.6227862611
 H         -4.4073216665       -3.6785988045        1.8888634704
 H         -3.4342732048       -4.2491322634        0.5325076591
 H         -3.4844706664       -2.0232305426       -0.4961397929
 H         -4.2289543439       -1.3381177793        0.9488141096
 H         -5.9333151906       -1.5901663174       -0.7218286639
 H         -6.2481992497       -2.7686761013        0.5505417312
 H         -5.2802928784       -4.5640099934       -0.8424391407
 H         -4.8367432957       -3.3885145121       -2.0812894266
 H         -7.6895994519       -4.0220065727       -1.1862355794
 H         -6.9362305587       -4.5765275655       -2.6821347331
 H         -7.2486631204       -2.8576807356       -2.4349385888
 H         -0.1365467935        1.0091791604       -1.6845914416
 H         -1.0160198308        3.4028425893        0.0049538294
 H         -2.0889786390        2.2526058158       -0.9379395602
