  24
        -37.61119008
 C         -3.8489139122        0.1971427080       -0.9719416463
 C         -3.1817227497        0.6388051574        0.3233631452
 O         -1.7642896371        0.7085473510        0.1848579250
 C         -1.0875450347       -0.4474555541        0.3313851635
 O         -1.6164854629       -1.5012195898        0.5917977069
 C          0.3501547336       -0.2646162194        0.1488489994
 C          1.3269487585       -1.3017491837        0.2610273331
 C          2.5300185112       -0.7231287450        0.0183236027
 C          3.9109289349       -1.2708629445       -0.0116689622
 O          2.3588719935        0.6017899797       -0.2368079770
 C          1.0480143252        0.8808089344       -0.1589153157
 C          0.6117725225        2.2779166328       -0.4013617703
 H         -4.9282568136        0.2111194860       -0.8502709669
 H         -3.5352059677       -0.8133022015       -1.2218842952
 H         -3.5729525773        0.8647115735       -1.7849467700
 H         -3.4264335006       -0.0613109951        1.1292763278
 H         -3.4903330788        1.6492323971        0.6008889508
 H          1.1231884019       -2.3259030144        0.4927154274
 H          3.8859542848       -2.3319634094        0.2150469910
 H          4.5377152487       -0.7626130800        0.7199846414
 H          4.3569572353       -1.1250040577       -0.9947275812
 H          1.4778095944        2.8891208798       -0.6418516581
 H          0.1168401995        2.6782533223        0.4815259986
 H         -0.1014817842        2.3143013426       -1.2223468354
