  38
        -52.54228887
 C          5.6912381358       -1.2102792054        0.5555002614
 C          4.6006748413       -1.6825732199       -0.0370646112
 C          3.3148200207       -1.0120031036       -0.1687949145
 C          2.2781425455       -1.6538143669       -0.8427345273
 C          1.0463697945       -1.0505136715       -1.0074355647
 C          0.7960440306        0.2154820038       -0.4893371906
 O         -0.3571233779        0.9117583748       -0.6822091197
 C         -1.5006887400        0.2778249536       -1.1972092699
 C         -2.1666935704       -0.6464954194       -0.1534395424
 C         -3.4257303368       -1.3215169949       -0.7153316355
 C         -4.5888716412       -0.3350360267       -0.8048277253
 C         -4.7918933839        0.3177579741        0.5602244345
 C         -3.4813184941        0.9574870617        1.0161061456
 O         -2.4235257159        0.0232163141        1.0634219989
 C          1.8184581844        0.8742237240        0.2254424816
 C          1.6368346566        2.1833221986        0.8532489772
 C          0.5118324829        2.6530064072        1.3739563704
 C          3.0542848004        0.2555353982        0.3484537897
 H          6.5986707981       -1.7879138388        0.5990602476
 H          5.7299236526       -0.2394469002        1.0184965672
 H          4.6361613333       -2.6696996142       -0.4831805799
 H          2.4384940817       -2.6401168489       -1.2549906837
 H          0.2823413612       -1.5825721885       -1.5535176766
 H         -1.2812536241       -0.2926417944       -2.1079997855
 H         -2.1673206062        1.1009065835       -1.4637170943
 H         -1.4340715228       -1.4123174757        0.1302472458
 H         -3.7049726426       -2.1342187167       -0.0415312778
 H         -3.2044597190       -1.7497428611       -1.6940648323
 H         -5.4950435988       -0.8602145383       -1.1126028679
 H         -4.3774905876        0.4312351952       -1.5535721716
 H         -5.0873014538       -0.4430926076        1.2853915214
 H         -5.5729101705        1.0775520301        0.5165053636
 H         -3.5662158079        1.3335781250        2.0383373937
 H         -3.2276548792        1.8005848635        0.3579566609
 H          2.5453085997        2.7702508750        0.9304172618
 H         -0.4041714854        2.0903456753        1.3596489137
 H          0.4788398019        3.6191965514        1.8500591191
 H          3.8296446364        0.7797422318        0.8864171099
