  42
        -59.77338653
 C          1.6264784324        4.8434834657       -3.1319018134
 C          0.4357778943        4.8430485039       -2.5458035272
 C         -0.1747793402        3.7416529695       -1.8087738071
 C         -1.4700857453        3.9005586480       -1.3164138946
 C         -2.1046065207        2.8871022874       -0.6073676413
 C         -3.4568727078        3.1171495015       -0.1090605441
 C         -4.1176895214        2.3745199151        0.7704376978
 C         -1.4318870455        1.6833605430       -0.3927438163
 C         -0.1410941296        1.5064312220       -0.8730096610
 O          0.6038547818        0.3755504081       -0.7364008236
 C          0.1089838854       -0.7078118565        0.0243936052
 C          0.2036324793       -0.4414610675        1.5307615325
 C         -0.5352527194       -1.4830578280        2.3705966503
 C         -0.0937543420       -2.9262911300        2.1260960287
 C          1.3771131597       -3.1688939165        2.4572955731
 C          1.7930174828       -4.6053240693        2.1453506195
 C          1.8687385680       -4.8596679429        0.6503659172
 O          1.7519223872       -4.0208282483       -0.1929262232
 O          2.1007438376       -6.1436912149        0.3125546137
 C          0.4794715175        2.5383634073       -1.5760307687
 H          1.9913332283        5.7096008822       -3.6573513611
 H          2.2825013493        3.9905478250       -3.1172229447
 H         -0.1767185192        5.7350543940       -2.6049522759
 H         -1.9901070629        4.8332424634       -1.4852967981
 H         -3.9344263720        4.0056087951       -0.5044360247
 H         -3.6986049780        1.4915076467        1.2221917755
 H         -5.1154712416        2.6311070604        1.0830663406
 H         -1.9378392322        0.8931201232        0.1358041181
 H          0.7450218057       -1.5502719798       -0.2580766527
 H         -0.9240135711       -0.9432612023       -0.2621180191
 H         -0.2229313632        0.5424837979        1.7420618439
 H          1.2559403999       -0.3992707552        1.8135903027
 H         -1.6052369754       -1.4142351705        2.1578545931
 H         -0.3944054127       -1.2385908340        3.4264769787
 H         -0.2713142014       -3.1874172579        1.0832979843
 H         -0.7113775160       -3.5836260286        2.7449507315
 H          1.5547406781       -2.9595276759        3.5140878536
 H          2.0005805144       -2.5014155248        1.8634955374
 H          1.0869419117       -5.3127386570        2.5910358035
 H          2.7844399629       -4.8082148437        2.5627649463
 H          2.1831418881       -6.7247687423        1.0797286296
 H          1.4803848558        2.3642424659       -1.9343793497
