  16
        -33.89923257
 C          4.1715817368       -1.3321283090        0.0027281211
 C          3.5344881272       -0.1687755308       -0.0016436595
 C          2.0943228280       -0.0267357099        0.0001018005
 C          1.0830027941       -1.0248298650        0.0051810648
 C         -0.0876982715       -0.3087904451        0.0033605128
 C         -1.4531388098       -0.7626168067        0.0055390018
 C         -2.5177982261        0.0314249748        0.0000277077
 F         -2.5235000739        1.3488222375       -0.0078901517
 F         -3.7633644117       -0.4238082221        0.0017288811
 O          0.2039379225        1.0063778795       -0.0020757273
 N          1.5390216362        1.1659390098       -0.0040307382
 H          5.2463199845       -1.3829749850        0.0007676885
 H          3.6491801105       -2.2740053471        0.0083894683
 H          4.0712810156        0.7686436651       -0.0072030303
 H          1.1972142728       -2.0872858514        0.0093252587
 H         -1.6144636977       -1.8278789944        0.0115593743
