  48
        -55.80628908
 C          3.7709634304       -2.8481562875        0.2451445756
 C          3.7559788789       -1.5206973354        0.1843938515
 C          2.5716973028       -0.6968753734        0.1002192579
 C          1.2640700377       -1.1104656376        0.1295576939
 N          0.4232451136       -0.0405279175        0.0197611620
 Si        -1.3495410848       -0.0071962759        0.0564934285
 C         -1.8136349128        0.5614851652        1.8397157179
 C         -1.1261037036        1.8670137030        2.2382404210
 C         -3.3222107183        0.6962012341        2.0438786351
 C         -1.8867985974        1.2661980280       -1.2888619343
 C         -1.0340138524        1.2065242899       -2.5579247140
 C         -3.3612438061        1.1193511705       -1.6676563122
 C         -2.1023451005       -1.7456407739       -0.2799616586
 C         -1.5817250540       -2.3917784664       -1.5639825568
 C         -1.9495497414       -2.7101163444        0.8970921312
 C          1.2062130791        1.0772863228       -0.0733518109
 C          2.5336788576        0.7353382683       -0.0298145198
 C          3.6718530274        1.6230065491       -0.1016853900
 C          3.6123787602        2.9486868200       -0.1724589274
 H          4.6938756896       -3.3988181090        0.3069380098
 H          2.8675863879       -3.4335105598        0.2342278023
 H          4.6973744531       -0.9870240129        0.1954449858
 H          0.8745623886       -2.1013293139        0.2308071802
 H         -1.4547312640       -0.2090852650        2.5313357870
 H         -1.4392529647        2.6827920332        1.5903032318
 H         -0.0453310615        1.7708105300        2.1767731377
 H         -1.3862595750        2.1333457399        3.2616537476
 H         -3.7124375566        1.5228930805        1.4553728260
 H         -3.5481302034        0.8961010041        3.0903410028
 H         -3.8439375852       -0.2111682154        1.7506141271
 H         -1.7626084806        2.2681836189       -0.8633745937
 H         -1.1646986659        0.2555186343       -3.0673391520
 H          0.0222385659        1.3251879307       -2.3335263281
 H         -1.3287703462        1.9987470015       -3.2449188430
 H         -3.5384630258        0.1635929706       -2.1543893195
 H         -3.6534077543        1.9075263869       -2.3601770037
 H         -4.0034868810        1.1801731193       -0.7938050482
 H         -3.1785318297       -1.5914744683       -0.4161091963
 H         -0.5034336215       -2.5204811291       -1.5338233361
 H         -1.8236139578       -1.7820739285       -2.4301104960
 H         -2.0376092287       -3.3712639521       -1.7051550700
 H         -0.9044794523       -2.9088655390        1.1171279897
 H         -2.4304520581       -3.6604000228        0.6675047023
 H         -2.4119253425       -2.3067649118        1.7937692429
 H          0.7573683630        2.0450246204       -0.1649290852
 H          4.6416035772        1.1428021373       -0.0943122052
 H          2.6766725906        3.4808429220       -0.1805286445
 H          4.5034030230        3.5505536198       -0.2238551145
  48
        -55.80603886
 C          3.3171979221        3.1397306678        0.9395928665
 C          3.4986747623        1.8696928473        0.5930608245
 C          2.4496432022        0.9293712156        0.2711266213
 C          1.0953422839        1.1428065566        0.3137634909
 N          0.4225003666        0.0144539419       -0.0621160270
 Si        -1.3477945850       -0.1340026178       -0.0728010587
 C         -1.9298617469        0.0207692701        1.7625461744
 C         -0.9488655735       -0.6548808060        2.7235698943
 C         -2.1220260210        1.4709632388        2.2105391267
 C         -1.9068420684        1.3626164798       -1.1483154809
 C         -1.2854080561        1.3024603852       -2.5443456574
 C         -3.4194480796        1.5489448694       -1.2595943646
 C         -1.7439970455       -1.8540208289       -0.8405079242
 C         -1.5180882218       -3.0074103455        0.1381343853
 C         -3.1706111015       -1.9442557369       -1.3800131366
 C          1.3603775441       -0.9357263460       -0.3478517635
 C          2.6228472484       -0.4320211053       -0.1600284228
 C          3.8799749171       -1.1175343061       -0.3551983854
 C          4.0183171260       -2.3962952161       -0.6892815732
 H          4.1475022527        3.7859789619        1.1672187900
 H          2.3377284040        3.5812490951        1.0071656320
 H          4.5076223224        1.4820876497        0.5388581355
 H          0.5566580927        2.0280438640        0.5830015311
 H         -2.8973787998       -0.4828042555        1.8641253833
 H          0.0285338767       -0.1819467323        2.6606319789
 H         -0.8292247079       -1.7099122767        2.4996733709
 H         -1.3043218682       -0.5636063825        3.7489721812
 H         -1.1762402281        2.0060120187        2.1823064169
 H         -2.4894707763        1.4999628752        3.2354858319
 H         -2.8341709237        1.9971451900        1.5819361458
 H         -1.5118902124        2.2611086202       -0.6620768287
 H         -1.6432992727        0.4328653295       -3.0905623994
 H         -0.2015908413        1.2444795654       -2.4819491101
 H         -1.5475881592        2.1917917946       -3.1154852490
 H         -3.8643538730        0.7715814066       -1.8728316879
 H         -3.6466097590        2.5083614396       -1.7226173913
 H         -3.8977104770        1.5209114557       -0.2842667338
 H         -1.0691414237       -2.0031278552       -1.6900070450
 H         -2.2295723508       -2.9534259552        0.9586706088
 H         -0.5130782755       -2.9921748216        0.5510765330
 H         -1.6617657731       -3.9621551624       -0.3670406085
 H         -3.8955651469       -1.7013939758       -0.6067828074
 H         -3.3763872512       -2.9550503625       -1.7302532708
 H         -3.3161940467       -1.2674226260       -2.2162473917
 H          1.0655536061       -1.9076997974       -0.6834502712
 H          4.7683489349       -0.5172037681       -0.2080914923
 H          3.1719425266       -3.0429820762       -0.8448080151
 H          4.9892446002       -2.8430205767       -0.8182734118
  48
        -55.80486933
 C          4.7121173516       -0.4741896990        1.7770204626
 C          3.5332639877        0.1221303205        1.9088221725
 C          2.4524518298        0.0909897120        0.9456938298
 C          1.1233250913        0.2084623199        1.2619220124
 N          0.3541800465        0.0835270981        0.1397757488
 Si        -1.4134632969        0.1268595408       -0.0160217850
 C         -2.1096417557        0.3425760648        1.7642277202
 C         -3.5759048889        0.7712451515        1.7743622900
 C         -1.9607743060       -0.9237360936        2.6090750210
 C         -1.7097707078        1.6342960951       -1.1785339359
 C         -3.1685373204        1.8928307502       -1.5525309028
 C         -1.0944245844        2.9063393244       -0.5931358501
 C         -1.9546185318       -1.5501084873       -0.8058305709
 C         -1.9729238370       -1.5249992862       -2.3351103902
 C         -1.0595408586       -2.7039042224       -0.3475421602
 C          1.2105160106       -0.1015709083       -0.9099911634
 C          2.5105847637       -0.1042466046       -0.4755852524
 C          3.6984563685       -0.1848179637       -1.2991834351
 C          3.7511942750       -0.7428763262       -2.5026460946
 H          5.4631238063       -0.4109915231        2.5466216093
 H          4.9633751857       -1.0613209540        0.9107237420
 H          3.3062463605        0.6593632219        2.8229389239
 H          0.6770364847        0.3621268093        2.2232807623
 H         -1.5387878870        1.1375399392        2.2551396764
 H         -4.1891505499        0.0761181272        1.2059464386
 H         -3.6965027575        1.7631375558        1.3501511375
 H         -3.9531438613        0.7970484748        2.7959542047
 H         -2.5975094889       -1.7148781910        2.2205058244
 H         -2.2614446424       -0.7275606332        3.6378383685
 H         -0.9339803544       -1.2796770650        2.6185428085
 H         -1.1735265268        1.4181851751       -2.1091875661
 H         -3.7229609036        2.2834591401       -0.7045752479
 H         -3.6635967470        0.9853557435       -1.8869865066
 H         -3.2266964924        2.6280135170       -2.3540527003
 H         -1.5905029778        3.1830323644        0.3344238093
 H         -1.1978147956        3.7348064022       -1.2921797330
 H         -0.0365961976        2.7645310419       -0.3866222091
 H         -2.9753839408       -1.7700174530       -0.4741848156
 H         -0.9739677372       -1.3547812272       -2.7280349932
 H         -2.6276494074       -0.7476292824       -2.7173770762
 H         -2.3227721101       -2.4818351164       -2.7205675847
 H         -0.0334715593       -2.5380010679       -0.6674187918
 H         -1.4034561607       -3.6419505207       -0.7811680744
 H         -1.0626824356       -2.8082591660        0.7328344897
 H          0.8352397319       -0.1775514051       -1.9102783976
 H          4.5862922279        0.2674180776       -0.8762204519
 H          2.8930980781       -1.2188652282       -2.9468073017
 H          4.6572170265       -0.7520147146       -3.0842324525
  48
        -55.80475676
 C          3.9366222608        0.0012100832        2.6021460410
 C          3.8195728591        0.3445480048        1.3250674186
 C          2.6222715363        0.1765514851        0.5284980151
 C          1.3318755294        0.1305019167        0.9895247063
 N          0.4512475369        0.0559471744       -0.0533345925
 Si        -1.3255988583       -0.0013350569        0.0109406965
 C         -1.7636512638       -0.3935098204        1.8433578425
 C         -1.7030302436        0.8520379572        2.7307787040
 C         -3.1268905132       -1.0612008420        2.0161658096
 C         -1.9404527186        1.7496219463       -0.5132284315
 C         -1.4923305009        2.1164282161       -1.9283512959
 C         -3.4524544357        1.9381792626       -0.3907438217
 C         -1.7432195679       -1.4032148961       -1.2431101438
 C         -1.1451750572       -2.7367750142       -0.7897086316
 C         -3.2280486239       -1.5690294834       -1.5592006452
 C          1.1977913062        0.0572593585       -1.1993365555
 C          2.5346540718        0.1215562888       -0.9032402584
 C          3.5972784194        0.0903313222       -1.8863641747
 C          4.8319355450       -0.3555566473       -1.6876021020
 H          4.8451802593        0.1720614662        3.1540972025
 H          3.1323362314       -0.4729106937        3.1390295618
 H          4.6563056721        0.8007349025        0.8116918900
 H          0.9841220239        0.1685930738        2.0004221133
 H         -1.0136767569       -1.1003351904        2.2141439535
 H         -2.5059330443        1.5407356822        2.4813138317
 H         -0.7606601137        1.3812011621        2.6177983598
 H         -1.8143428911        0.5740957998        3.7782919640
 H         -3.9218002838       -0.4379937754        1.6141407320
 H         -3.3318603709       -1.2273589340        3.0732644879
 H         -3.1584694632       -2.0244845637        1.5153961761
 H         -1.4684589556        2.4678254063        0.1674600374
 H         -1.9150400347        1.4304449998       -2.6590252253
 H         -0.4092119388        2.0861029172       -2.0092797607
 H         -1.8230492456        3.1230270718       -2.1803705530
 H         -3.9830232672        1.2892888334       -1.0818389409
 H         -3.7228615810        2.9675183476       -0.6226671794
 H         -3.7991960957        1.7178717600        0.6147237316
 H         -1.2515440161       -1.1417194024       -2.1862701220
 H         -1.6114666099       -3.0809905016        0.1299660242
 H         -0.0764002113       -2.6393412240       -0.6154230300
 H         -1.2981300203       -3.4997173235       -1.5516457963
 H         -3.8018266998       -1.7960022052       -0.6658349956
 H         -3.3706948289       -2.3841002853       -2.2678814919
 H         -3.6329597830       -0.6648111878       -2.0051751749
 H          0.7313781598       -0.0216029335       -2.1606892939
 H          3.3080061849        0.4377006539       -2.8720770616
 H          5.1505998236       -0.7569599415       -0.7412950765
 H          5.5646228779       -0.3515344279       -2.4772095052
  48
        -55.80449098
 C          3.8008947426       -2.5405040592        0.3714196535
 C          3.7061829631       -1.2963818498       -0.0819057990
 C          2.5054747998       -0.4884352179       -0.0343181565
 C          1.2125864729       -0.9445833133       -0.0292007256
 N          0.3365737826        0.1019881606       -0.0711768191
 Si        -1.4347308670        0.1222203441       -0.0381191880
 C         -1.8880746533        1.0607377295        1.5861448913
 C         -3.3498767666        0.8804753110        1.9935145976
 C         -0.9696018348        0.6943024320        2.7526645290
 C         -1.9595020052        1.2075593822       -1.5450515188
 C         -1.0749181465        0.9915224619       -2.7734535499
 C         -3.4281485408        1.0200001153       -1.9241318986
 C         -2.1771963916       -1.6496190965       -0.1203530274
 C         -1.8036525512       -2.4012231212       -1.3993555907
 C         -1.8559255010       -2.5089900023        1.1033845257
 C          1.0858568984        1.2468658728       -0.1039294081
 C          2.4223433802        0.9444241423       -0.0770880850
 C          3.4888187743        1.9237657357       -0.0562841870
 C          4.6977990389        1.7493880423        0.4637159961
 H          4.7132604410       -3.1062098225        0.2891572948
 H          2.9729455516       -3.0354765091        0.8506482366
 H          4.5655497629       -0.8227621426       -0.5390031894
 H          0.8638225773       -1.9560076189       -0.0326348692
 H         -1.7414726665        2.1297579569        1.3921571197
 H         -3.5671192175       -0.1608295132        2.2161035740
 H         -4.0183471015        1.2048708426        1.2004196047
 H         -3.5707889446        1.4680867286        2.8834084917
 H         -1.0785888327       -0.3522396858        3.0234464453
 H         -1.2113574086        1.2965311461        3.6273173679
 H          0.0714760843        0.8711163013        2.4952526305
 H         -1.8400975477        2.2556340581       -1.2470328226
 H         -1.1695157576       -0.0233298373       -3.1498772627
 H         -0.0293792095        1.1671113129       -2.5346407122
 H         -1.3629510241        1.6754636056       -3.5706897013
 H         -3.6161987588        0.0034462906       -2.2593870894
 H         -3.7004583820        1.6966681191       -2.7328458667
 H         -4.0794578935        1.2250535184       -1.0786699270
 H         -3.2652319775       -1.5187399926       -0.1355205042
 H         -0.7278627000       -2.5233523095       -1.4888419218
 H         -2.1572028866       -1.8716709692       -2.2795352829
 H         -2.2582643104       -3.3914605209       -1.3990005584
 H         -0.7853159742       -2.6479154903        1.2228746120
 H         -2.3148549812       -3.4920049288        1.0012217421
 H         -2.2404427694       -2.0536285547        2.0115974505
 H          0.6116920086        2.2084580170       -0.1190443573
 H          3.2242388805        2.8853077362       -0.4819268595
 H          4.9885390371        0.8302029412        0.9420552844
 H          5.4355319819        2.5340259077        0.4455244108
  48
        -55.80422190
 C          3.2583472670        2.8452571321        1.5146786300
 C          3.4421059616        1.6565632975        0.9496008733
 C          2.3949511501        0.7920540849        0.4551797672
 C          1.0410914158        0.9969826755        0.5292599783
 N          0.3684282842       -0.0440289476       -0.0492339610
 Si        -1.3999370688       -0.1506573344       -0.1364729859
 C         -2.0592214848        0.0986298977        1.6641879924
 C         -1.0702878457       -0.4232004335        2.7103605215
 C         -2.4350986266        1.5380303697        2.0140155295
 C         -1.9459390567        1.1248442612       -1.4751539715
 C         -3.4648724494        1.1679554689       -1.6423493576
 C         -1.4007593512        2.5367959874       -1.2656321373
 C         -1.9938766192       -1.8867171204       -0.7249571546
 C         -1.6662771581       -2.1839802613       -2.1883299440
 C         -1.5155845679       -3.0320284182        0.1671015397
 C          1.3082296409       -0.9267725238       -0.4988153038
 C          2.5696968055       -0.4684636861       -0.2155484504
 C          3.8274086629       -1.1098658076       -0.5239881383
 C          3.9672455541       -2.2992368444       -1.1000564212
 H          4.0869224031        3.4380726363        1.8622369702
 H          2.2788623563        3.2711093212        1.6498035487
 H          4.4510778882        1.2819434401        0.8370311944
 H          0.5028626084        1.8164027542        0.9590634321
 H         -2.9748685904       -0.4973937621        1.7535963628
 H         -0.1626808983        0.1751099661        2.7130231281
 H         -0.7887492159       -1.4536702132        2.5141960091
 H         -1.5132907142       -0.3725959900        3.7040387535
 H         -1.5652406042        2.1885287698        1.9731748502
 H         -2.8363328748        1.5845748777        3.0258220627
 H         -3.1901599171        1.9256784636        1.3359465903
 H         -1.5258774050        0.7724476181       -2.4248440521
 H         -3.9457942416        1.5291972043       -0.7370467713
 H         -3.8620910467        0.1812720674       -1.8650389564
 H         -3.7382195220        1.8366196708       -2.4573358246
 H         -1.7924053752        2.9788636904       -0.3540512953
 H         -1.6900983107        3.1762522912       -2.0987831165
 H         -0.3153877096        2.5264330212       -1.2100099383
 H         -3.0875847896       -1.8697854133       -0.6480533112
 H         -0.5944663561       -2.1878477833       -2.3646119314
 H         -2.1131294068       -1.4435298832       -2.8459301719
 H         -2.0562102274       -3.1617921429       -2.4694213213
 H         -0.4307710462       -3.0740243419        0.2125654258
 H         -1.8751773572       -3.9854542002       -0.2187733438
 H         -1.8956118228       -2.9166561144        1.1784454619
 H          1.0161177216       -1.8257454232       -0.9988992440
 H          4.7152346373       -0.5544460755       -0.2511384428
 H          3.1220726014       -2.8990806830       -1.3911371909
 H          4.9387785091       -2.7171833013       -1.3007209124
  48
        -55.80292900
 C          4.7709365462        0.0009593998        1.5037316709
 C          3.5871288519        0.5994390671        1.5052650058
 C          2.4637820004        0.2713578735        0.6469455951
 C          1.1583947598        0.3972082240        1.0452530945
 N          0.3095719499       -0.0901450684        0.0878603164
 Si        -1.4612030035       -0.0092957242        0.1028287872
 C         -1.9617716009        0.4364290860        1.9051081967
 C         -3.4498174980        0.7615353240        2.0198661996
 C         -1.6067812881       -0.6653923768        2.9038465431
 C         -1.9330088054        1.4246047850       -1.0962766988
 C         -1.4131714497        2.7667815488       -0.5774985397
 C         -1.4086057910        1.1998080057       -2.5143507978
 C         -2.2691845632       -1.6982231099       -0.3642739388
 C         -3.6401908393       -1.4995258699       -1.0137588227
 C         -1.4160244369       -2.6056019127       -1.2482865630
 C          1.0977211933       -0.5149925754       -0.9469137353
 C          2.4235986312       -0.3105799215       -0.6653098653
 C          3.4830682604       -0.5673191235       -1.6231666109
 C          4.6233644622        0.1029346846       -1.7244286429
 H          5.5433619577        0.2792442431        2.2008475860
 H          5.0088632757       -0.7870267515        0.8102841856
 H          3.3747394130        1.3639251811        2.2445804467
 H          0.7829690572        0.7896348914        1.9680586955
 H         -1.4145197997        1.3372829336        2.1988050758
 H         -4.0513092619       -0.1160502663        1.7959968254
 H         -3.7333705092        1.5564887930        1.3351431085
 H         -3.6917892225        1.0821613958        3.0323434203
 H         -2.2140985716       -1.5503447955        2.7292060086
 H         -1.7946183814       -0.3288906650        3.9226899367
 H         -0.5611994991       -0.9513553534        2.8250805764
 H         -3.0239397887        1.4895440403       -1.1553350947
 H         -0.3302590571        2.7408223932       -0.4761974145
 H         -1.8426053463        3.0073926642        0.3913860299
 H         -1.6695349497        3.5664308522       -1.2708193143
 H         -0.3212874994        1.1964522151       -2.5193162175
 H         -1.7465014145        1.9975478500       -3.1744995807
 H         -1.7584971868        0.2544167366       -2.9213899410
 H         -2.4339087556       -2.2428017867        0.5716269252
 H         -3.5430941718       -1.0118003246       -1.9802067017
 H         -4.2880496508       -0.8894567869       -0.3905813129
 H         -4.1261914299       -2.4616345806       -1.1701829336
 H         -1.2622725693       -2.1607390277       -2.2286727113
 H         -1.9159783842       -3.5627855836       -1.3931725112
 H         -0.4473063237       -2.7938331556       -0.7935133875
 H          0.6654127591       -0.9119803490       -1.8418205782
 H          3.2518048977       -1.3422012453       -2.3458913039
 H          4.8748215357        0.9027931245       -1.0495956428
 H          5.3448848275       -0.1262805610       -2.4905356479
  48
        -55.80278899
 C          3.6794879664        0.7654058829        2.7037619154
 C          3.6240205298        0.1655286636        1.5206945199
 C          2.4499312718        0.1050651558        0.6758326213
 C          1.1430941052        0.1847256518        1.0818295968
 N          0.2996851695       -0.0133565084        0.0248587550
 Si        -1.4727976464       -0.0224739492       -0.0051834837
 C         -2.2296701925       -0.0146571980        1.7668321516
 C         -1.7933086730       -1.2017562008        2.6249866035
 C         -2.0058564672        1.2947111815        2.5233549625
 C         -2.0047125617        1.6231853723       -0.8577035561
 C         -1.3465158976        1.8769680808       -2.2130477715
 C         -3.5237316748        1.7423277567       -0.9811839251
 C         -2.0054237711       -1.6799825870       -0.8466437046
 C         -2.2484653673       -1.5832295193       -2.3522988023
 C         -1.0001133355       -2.8032547272       -0.5783457275
 C          1.0871058476       -0.2259333664       -1.0745591222
 C          2.4129414032       -0.1544832308       -0.7358555970
 C          3.5103704579       -0.2793629394       -1.6724575509
 C          4.7106424016        0.2730827069       -1.5434613772
 H          4.5742957025        0.7556595893        3.3024499478
 H          2.8361825685        1.2957207201        3.1131710924
 H          4.4984198734       -0.3415994231        1.1334314601
 H          0.7599719360        0.3397101798        2.0684344663
 H         -3.3130032047       -0.1134604862        1.6288603111
 H         -0.7142492086       -1.2261811199        2.7504676947
 H         -2.1063810312       -2.1390107579        2.1731969496
 H         -2.2471282481       -1.1388115826        3.6135833615
 H         -0.9485758977        1.4899699474        2.6774599735
 H         -2.4851182790        1.2505644378        3.5008754043
 H         -2.4285459003        2.1356629946        1.9806401494
 H         -1.6693348022        2.4328313794       -0.1985459468
 H         -1.6489206097        1.1321732536       -2.9435104199
 H         -0.2634416885        1.8590046710       -2.1246134431
 H         -1.6380141534        2.8556482624       -2.5925350322
 H         -3.9220083681        0.9744476549       -1.6393051637
 H         -3.7960999381        2.7125952000       -1.3940741406
 H         -4.0042106175        1.6389427149       -0.0119767706
 H         -2.9572676313       -1.9772673857       -0.3914848072
 H         -1.3356863471       -1.3140154315       -2.8775239544
 H         -3.0115534006       -0.8452632376       -2.5830072686
 H         -2.5829773071       -2.5448651051       -2.7400477904
 H         -0.0505626054       -2.5915819846       -1.0632268177
 H         -1.3781299870       -3.7471899701       -0.9686727599
 H         -0.8112097207       -2.9241834614        0.4843210480
 H          0.6504244410       -0.3910043807       -2.0391342206
 H          3.2791801924       -0.8512807586       -2.5643333393
 H          4.9688672288        0.8912666734       -0.7011639350
 H          5.4736688921        0.1406331501       -2.2921092204
  48
        -55.80260203
 C          4.8187530008       -0.7726976580        1.0605501726
 C          3.6659736954       -0.2220820057        1.4178900984
 C          2.4978444058       -0.0574857278        0.5729064280
 C          1.2146844323       -0.1018931398        1.0555584011
 N          0.3116382573       -0.0290679732        0.0330685196
 Si        -1.4613343911       -0.0458638756        0.1006634277
 C         -1.9319996527       -0.1437041776        1.9630695626
 C         -1.6526308103        1.1629212371        2.7074262324
 C         -3.3937075738       -0.5308835314        2.1802651460
 C         -2.0823839590        1.5918393395       -0.7129706700
 C         -1.1249506892        2.7547002287       -0.4418415272
 C         -2.2977385463        1.4789040002       -2.2230753444
 C         -1.9155036046       -1.6129184565       -0.9238111964
 C         -1.2426874984       -2.8587434397       -0.3451225957
 C         -3.4119039990       -1.8695027839       -1.0958210577
 C          1.0372143148        0.0675461398       -1.1215586464
 C          2.3815626233        0.0704881320       -0.8527003120
 C          3.3929083598        0.2706304074       -1.8741450355
 C          4.5608414021        0.8770494222       -1.7076573266
 H          5.6275998107       -0.8901776500        1.7620177134
 H          4.9942294498       -1.1264005366        0.0593571368
 H          3.5180191086        0.0881656245        2.4465461851
 H          0.8909086144       -0.2212440888        2.0695903549
 H         -1.3200332826       -0.9255311109        2.4246425240
 H         -2.3191487296        1.9476036139        2.3576026733
 H         -0.6266667723        1.4919230400        2.5654961625
 H         -1.8225973477        1.0315743257        3.7756479869
 H         -4.0593555496        0.1496684781        1.6547494540
 H         -3.6395032025       -0.4920609406        3.2407801461
 H         -3.5873729850       -1.5401108775        1.8306214315
 H         -3.0498710218        1.8481300705       -0.2673460503
 H         -0.1504045241        2.5543804535       -0.8809237611
 H         -0.9874434641        2.9198939570        0.6220579878
 H         -1.5134717680        3.6723025162       -0.8815081471
 H         -1.3597140502        1.2684960590       -2.7302141138
 H         -2.6843441006        2.4180055667       -2.6169275140
 H         -3.0043987206        0.6926550224       -2.4711502799
 H         -1.4988763899       -1.4594160122       -1.9254680422
 H         -1.6214356648       -3.0732749879        0.6516392869
 H         -0.1661356683       -2.7225752604       -0.2797813647
 H         -1.4400112700       -3.7245351821       -0.9753690232
 H         -3.8573889974       -2.2033871219       -0.1635383431
 H         -3.5771785554       -2.6477372212       -1.8397025775
 H         -3.9380855224       -0.9748330720       -1.4169865389
 H          0.5458580158        0.1487441880       -2.0708411639
 H          3.0988787366       -0.0620396097       -2.8637397583
 H          4.8742441361        1.2534594227       -0.7492878700
 H          5.2436904073        1.0189350605       -2.5284407975
