20
 energy: -35.484730994818 gnorm: 0.000074658989 xtb: 6.4.1 (23d549d)
C        -3.20592009890000    1.59696313420000    0.34545451690000
C        -2.11317017990000    1.60725045590000   -0.40405274180000
C        -0.97046255680000    0.72411225470000   -0.23358068650000
C         0.36945265330000    1.15580491700000   -0.36387635060000
C         1.17028002360000    0.08083448420000   -0.04807439570000
C         2.63229398360000   -0.08376736660000    0.01011985870000
O         3.18026424200000   -1.10234531730000    0.32429781030000
O         3.34121723430000    1.01716283810000   -0.32189633200000
O         0.39724671820000   -0.97961623730000    0.25170988050000
C        -0.89224569440000   -0.61588813480000    0.13616020490000
C        -1.85649739020000   -1.67193003510000    0.33931687420000
C        -3.12281749870000   -1.67407171900000   -0.06299642340000
H        -3.99857517690000    2.30863164820000    0.19192108730000
H        -3.34081290230000    0.88607897770000    1.14277201780000
H        -1.98621121670000    2.36365980540000   -1.16886087700000
H         0.67085662660000    2.14870415240000   -0.63888883320000
H         2.78060276860000    1.76757390100000   -0.55450524240000
H        -1.43227575780000   -2.54297371590000    0.82176529040000
H        -3.56192842700000   -0.84013585870000   -0.58157850820000
H        -3.75471258600000   -2.52756201450000    0.10855500920000
