  29
        -37.04812262
 C         -3.7983125108       -1.7209640747       -0.5246964018
 C         -2.6304307193       -1.9221378745        0.0796786877
 C         -1.6007439712       -0.9332674531        0.2363737951
 C         -0.3861302209       -1.0957957681        0.8520111274
 C          0.4201409926        0.0573026522        0.8554640728
 C          1.7981544335        0.0872569097        1.4407246732
 C          2.8808222343       -0.0335409321        0.3595948316
 C          2.8274956746       -1.3737683638       -0.3686454033
 C          3.9190889501       -1.4825083359       -1.4256996923
 C         -0.1880465496        1.1235474957        0.2267394063
 C          0.3288818060        2.4515591660        0.0463439298
 C         -0.2800846952        3.4219522176       -0.6307006869
 S         -1.7671021591        0.6876717349       -0.3653624903
 H         -4.5330439834       -2.5015099352       -0.6115100008
 H         -4.0508655201       -0.7639171285       -0.9505655705
 H         -2.3920365811       -2.8902619622        0.5027563491
 H         -0.0808036272       -2.0277532212        1.2961307019
 H          1.9020140250       -0.7415389389        2.1441353530
 H          1.9470504452        1.0175212217        1.9938559431
 H          3.8611368768        0.0824912232        0.8283465830
 H          2.7578912581        0.7735768666       -0.3660665423
 H          1.8505743840       -1.4883105621       -0.8433303275
 H          2.9425701082       -2.1835215805        0.3560911307
 H          3.8091714497       -0.6954778965       -2.1687110653
 H          3.8665094657       -2.4428521536       -1.9332374700
 H          4.9030724927       -1.3880803379       -0.9707478599
 H          1.2881472689        2.6390217614        0.5109096186
 H         -1.2326932395        3.2618830030       -1.1080904287
 H          0.1541327814        4.4010567744       -0.7291356840
