26
 energy: -32.771521738445 gnorm: 0.000051556518 xtb: 6.4.1 (23d549d)
C         4.20132886580000   -0.23939032810000    0.21955976870000
C         3.13550478060000    0.53816502360000    0.06736663010000
C         1.74749552220000    0.10760385660000   -0.02753135500000
C         1.34995416600000   -1.22669619870000    0.06556486730000
C         0.01911014890000   -1.56592862450000   -0.03273070160000
C        -0.97198417470000   -0.60234819570000   -0.22670609660000
C        -2.37143663300000   -1.00897832420000   -0.33300596480000
C        -2.91427680410000   -2.02991220790000    0.31726527870000
C        -0.58702593060000    0.74271487900000   -0.33068531990000
C        -1.59869505980000    1.84390951700000   -0.48854396020000
C        -2.35729306070000    2.08540217670000    0.81748235400000
C         0.75465613290000    1.06756546560000   -0.22335539880000
H         5.19292386750000    0.17570191070000    0.27924287770000
H         4.13637328460000   -1.31157502320000    0.28967186420000
H         3.27766949470000    1.61058228110000    0.00081832570000
H         2.08453995140000   -2.00303304730000    0.21280608210000
H        -0.26881811810000   -2.60559900780000    0.02119949880000
H        -2.99195558800000   -0.41586845110000   -0.99250497450000
H        -2.35272942260000   -2.63024755130000    1.01351565730000
H        -3.95120970330000   -2.29244904720000    0.19264216860000
H        -2.31038464410000    1.59696640090000   -1.27967791480000
H        -1.08726769490000    2.76368271420000   -0.78016885860000
H        -2.88775436700000    1.18612891050000    1.12225991190000
H        -3.07778583560000    2.89125123250000    0.69543214220000
H        -1.66316579440000    2.35774366220000    1.60968089580000
H         1.04537649640000    2.10749421060000   -0.29565555180000
