  26
        -40.95654024
 C         -4.1685685762        0.8662477055       -0.7889402691
 C         -3.3455682243        1.0944834882        0.2229880916
 C         -1.9329815686        0.6993338824        0.2563750939
 C         -1.0101369246        1.6622388318        0.6690120054
 C          0.3492549522        1.4186621423        0.6300951491
 C          0.7895633530        0.1933274639        0.1689210908
 S          2.5484602357       -0.1216788279        0.0431875482
 C          2.9552739810        0.5061084199       -1.6158571282
 O          3.2430861843        0.6855371141        1.0090827198
 O          2.7756655613       -1.5414754714        0.0519835877
 C         -0.0983792163       -0.7861365658       -0.2167050389
 C         -1.4734034591       -0.5631046289       -0.1558892670
 C         -2.3552849524       -1.6938620312       -0.4638967273
 C         -3.4072348905       -2.0496962446        0.2572927265
 H         -5.1825875104        1.2271522006       -0.7851851922
 H         -3.8588928434        0.3114075258       -1.6584139119
 H         -3.6769232048        1.6881558136        1.0661037457
 H         -1.3738624631        2.6216703271        1.0072172398
 H          1.0710211932        2.1499204888        0.9572397198
 H          2.7118534899        1.5600145947       -1.6448876328
 H          2.3761053950       -0.0547685247       -2.3374993657
 H          4.0153099569        0.3545848240       -1.7763757541
 H          0.2924111684       -1.7426877317       -0.5293687974
 H         -2.0367910455       -2.3093818587       -1.2960068132
 H         -3.7255745173       -1.4829306211        1.1157702059
 H         -3.9862073350       -2.9247143915        0.0173692999
