  47
        -92.14588546
 C          4.7178913970       -1.7102216360        0.7094812859
 O          3.6677397789       -2.4414571819        0.0923293663
 C          2.4324879866       -2.1650112112        0.5267691807
 C          1.4072953806       -2.9863708875       -0.1713938669
 C          0.1971084104       -2.4145770017       -0.5920919581
 N         -0.0114406945       -1.0325591056       -0.5216388236
 C          1.0272610080       -0.1616994719       -0.8413564374
 C          1.1867575937        1.0392486502       -0.1493583513
 C          2.2440323662        1.8721891228       -0.4649736550
 C          2.4547301097        3.1540231279        0.2881619309
 F          1.4566122209        3.4585918500        1.1254652711
 F          3.5799909993        3.1244404834        1.0289968377
 F          2.5906602215        4.2097321310       -0.5382336312
 C          3.1596517907        1.5373424944       -1.4565170991
 C          2.9936303471        0.3477448878       -2.1440015286
 C          1.9387131064       -0.4929001009       -1.8467827054
 C         -1.2479120964       -0.5438046041       -0.0881398611
 C         -1.9695977153       -1.2201183677        0.8954229246
 C         -3.1919249673       -0.7413000772        1.3111871775
 C         -3.7395656444        0.4237105622        0.7658019292
 C         -5.0321896360        0.8686488886        1.2541598035
 C         -5.7520323939        1.9082902595        0.8565778550
 F         -5.4616833166        2.7910576189       -0.0920844363
 F         -6.9358115211        2.2169308753        1.3842980326
 C         -3.0098183876        1.0957727274       -0.2182253535
 C         -1.7871471862        0.6192192909       -0.6390809038
 C         -0.7896855592       -3.2410703632       -1.1288850302
 C         -0.5744635248       -4.5988324554       -1.2579542268
 C          0.6360809738       -5.1566445789       -0.8746449785
 C          1.6210444081       -4.3499951663       -0.3360020809
 O          2.1961473275       -1.3689423618        1.4006969231
 H          5.6418843568       -2.0749886987        0.2690212375
 H          4.7123334452       -1.8749413294        1.7886064711
 H          4.5951652705       -0.6419807238        0.5172833954
 H          0.5045497932        1.2992280685        0.6442272885
 H          3.9812716966        2.1996437880       -1.6794512195
 H          3.6908334469        0.0747818957       -2.9209304842
 H          1.8164293337       -1.4173645527       -2.3917052049
 H         -1.5557008059       -2.1134709856        1.3378751085
 H         -3.7336612483       -1.2720331938        2.0800353051
 H         -5.4763535479        0.2813460492        2.0449887232
 H         -3.3978606185        1.9954456238       -0.6659543759
 H         -1.2419385523        1.1463659581       -1.4078078907
 H         -1.7222699564       -2.8020008427       -1.4507383088
 H         -1.3494982192       -5.2235172121       -1.6756663117
 H          0.8077998405       -6.2153017177       -0.9907958657
 H          2.5613407312       -4.7718898607       -0.0163611211
