  20
        -39.10623695
 C          2.9969992248       -2.5068482794       -0.1349025160
 C          2.6949690746       -1.2266994266        0.0415060981
 C          1.3547934155       -0.6501500699        0.0310765851
 C          0.1886437856       -1.4082546661        0.0545070254
 C         -1.0923586912       -0.8570585420        0.0421063220
 C         -2.2365321570       -1.7624162822        0.0666662176
 C         -3.5210850642       -1.4554604159       -0.0731258219
 C         -1.1842498923        0.5378969407        0.0138394367
 F         -2.3693005467        1.1674500028        0.0143537483
 C         -0.0426131096        1.3291544789       -0.0016222431
 F         -0.1594464398        2.6647872824       -0.0233957251
 C          1.2126334926        0.7401844322        0.0075152978
 F          2.2978928202        1.5309915057       -0.0101501364
 H          4.0190327261       -2.8420559809       -0.1139275916
 H          2.2547520568       -3.2653811080       -0.3143571605
 H          3.4912607886       -0.5108766236        0.1944924563
 H          0.2746974603       -2.4824802122        0.0894820658
 H         -1.9593318613       -2.8000094787        0.2057503336
 H         -3.8804869981       -0.4545432429       -0.2262687170
 H         -4.2719792901       -2.2265441433       -0.0402518584
