  47
        -92.14534825
 C          1.6310148140       -0.5711739158       -3.3656481998
 O          1.0674946124       -1.1025502197       -2.1760366279
 C          1.9346553971       -1.6659792887       -1.3194961207
 C          1.2469792966       -2.2236203200       -0.1233032095
 C          0.2400500363       -1.5332702521        0.5642508737
 N         -0.0980725126       -0.2122615139        0.2328766673
 C          0.9064959095        0.7084424719       -0.0492223776
 C          2.1479502684        0.6040868360        0.5814334558
 C          3.1531006176        1.5018587318        0.2700078568
 C          4.4837268746        1.4141426121        0.9605432538
 F          4.6619254939        0.2772361070        1.6427268562
 F          5.5138041943        1.5209940261        0.1066678529
 F          4.6442792627        2.4147984647        1.8551070349
 C          2.9494961430        2.5230063288       -0.6498264579
 C          1.7125322934        2.6312557439       -1.2629387227
 C          0.7014577376        1.7370040438       -0.9719885487
 C         -1.4454884611        0.1555447950        0.1980276011
 C         -1.8572193144        1.4158865158        0.6337614729
 C         -3.1905886554        1.7590259604        0.6034460440
 C         -4.1617042085        0.8631795669        0.1460758059
 C         -5.5477543582        1.2941851392        0.1465530450
 C         -6.6236204899        0.6160853743       -0.2276706076
 F         -6.6872714002       -0.6254775573       -0.6953670810
 F         -7.8547666409        1.1223212903       -0.1802863237
 C         -3.7416761020       -0.3983666724       -0.2844830989
 C         -2.4083557829       -0.7448035124       -0.2598424315
 C         -0.4023108888       -2.1630000585        1.6291004219
 C         -0.0432554261       -3.4406459419        2.0120960267
 C          0.9828769355       -4.1053924972        1.3582058198
 C          1.6262032023       -3.4930326131        0.2994444274
 O          3.1155268921       -1.7538270959       -1.5331074826
 H          0.7964590791       -0.2161052364       -3.9642783386
 H          2.1870639889       -1.3445045282       -3.8991708652
 H          2.3101477185        0.2500459431       -3.1268443228
 H          2.3265300654       -0.1752539929        1.3063163068
 H          3.7473093470        3.2109684818       -0.8798556754
 H          1.5404839794        3.4140386917       -1.9856015717
 H         -0.2514972210        1.8142591980       -1.4727993628
 H         -1.1258342193        2.1181623807        1.0051632613
 H         -3.4922910273        2.7363711943        0.9500802139
 H         -5.7401710661        2.2978057026        0.4977767887
 H         -4.4575848758       -1.1153340950       -0.6504543638
 H         -2.0973496719       -1.7190993699       -0.6052642903
 H         -1.1795921562       -1.6326430286        2.1591323340
 H         -0.5530330184       -3.9111302741        2.8391444656
 H          1.2782195770       -5.0940749061        1.6722364415
 H          2.4240129818       -3.9923603133       -0.2287493633
