  30
        -48.97229240
 C          3.9753462302        0.7088643064        0.7829684039
 N          3.1123079644        1.1296614069       -0.3031937192
 C          1.7352875133        1.0158928544       -0.1124999383
 C          0.8915047229        2.1083063480       -0.1300309620
 C         -0.4794007824        1.9619047120        0.0687311397
 C         -1.0518596123        0.7298894517        0.2927937778
 C         -2.5057372941        0.6762383841        0.4618712977
 C         -3.3351971171       -0.1330938441       -0.1731974624
 F         -3.0245545764       -1.0652379137       -1.0682055203
 F         -4.6607004730       -0.1119843480       -0.0111881473
 C          1.1693936691       -0.2852343426        0.0599540646
 C         -0.2205780440       -0.4234581557        0.3242044570
 C         -0.7189613797       -1.7075803940        0.6308584660
 C          0.0791000354       -2.8147177159        0.5634229194
 C          1.4138692377       -2.6926709731        0.1581907230
 C          1.9470144627       -1.4551154422       -0.0724070433
 C          3.6110084707        2.3128302219       -0.9629291726
 H          3.4861868240       -0.0483890236        1.3890390115
 H          4.2277159111        1.5580345798        1.4332428697
 H          4.9046231010        0.3011447065        0.3789374090
 H          1.2847695045        3.1019897154       -0.2754647728
 H         -1.1066826681        2.8418368875        0.0458923461
 H         -2.9608012835        1.4187200021        1.1018424733
 H         -1.7485784621       -1.8129075037        0.9349465400
 H         -0.3219635532       -3.7888488196        0.8008654683
 H          2.0205588081       -3.5782328169        0.0388971286
 H          2.9724036307       -1.3625485338       -0.3929351560
 H          4.6242843785        2.1044372584       -1.3099840072
 H          3.6521596512        3.1926157132       -0.3051616733
 H          2.9888240324        2.5388840679       -1.8265083133
