  23
        -42.28951522
 C         -4.1107249980        1.0859491983       -0.0873545658
 C         -3.5754558364       -0.1288274276       -0.0491438615
 C         -2.1565823739       -0.4533788971        0.0038894386
 C         -1.7626929756       -1.7913949350        0.0807391368
 C         -0.4322466873       -2.1438692063        0.1378356875
 C          0.5781472299       -1.1814831638        0.1194852618
 C          1.9847052935       -1.5687822452        0.1903602658
 C          2.4741413221       -2.6914209562       -0.3197333451
 C          0.1807849944        0.1620128218        0.0421133701
 C          1.2194584455        1.2482646369       -0.0014307304
 F          1.9125054864        1.3542118848        1.1518229276
 F          2.1362894422        1.0590231133       -0.9688321006
 F          0.6994516195        2.4649447687       -0.2231617999
 C         -1.1554783321        0.5167634690       -0.0168318617
 H         -5.1775852081        1.2228493879       -0.1245935835
 H         -3.5217598499        1.9866567859       -0.0821307568
 H         -4.2303498669       -0.9914229721       -0.0536397572
 H         -2.5184901218       -2.5635068800        0.1021222506
 H         -0.1577009589       -3.1840708191        0.2197081692
 H          2.6520431103       -0.8767736317        0.6843206549
 H          1.8605062446       -3.3955337957       -0.8563512937
 H          3.5194863564       -2.9330028575       -0.2398795167
 H         -1.4185545289        1.5600829015       -0.0831910096
