  23
        -50.74450782
 C          3.2335248048       -2.3642061747        0.5749306759
 C          2.1165388510       -2.6512773462       -0.0800704386
 C          0.9145642706       -1.8185226152       -0.1177012867
 C         -0.3209085781       -2.4600524685       -0.0314244514
 C         -1.5026059386       -1.7500168643        0.0067294693
 C         -1.4574251926       -0.3628840642       -0.0654449060
 C         -2.7315395041        0.4300668715        0.0015606557
 F         -3.7871287448       -0.2433441082       -0.4830192377
 F         -3.0518732407        0.7631161186        1.2675889271
 F         -2.6676997474        1.5810619070       -0.6834827541
 C         -0.2465377877        0.2983802099       -0.1814323503
 C          0.9506258324       -0.4148045624       -0.2131646103
 C          2.2171927413        0.2755092397       -0.4265882456
 C          2.5074990322        1.5173817249       -0.0711594675
 F          1.7384910291        2.3634098362        0.5999345869
 F          3.6778825028        2.0949998065       -0.3225325311
 H          4.0667962032       -3.0456856245        0.5870580545
 H          3.3467143822       -1.4606132533        1.1498747034
 H          2.0244309746       -3.6030589412       -0.5883685136
 H         -0.3465513794       -3.5379093755        0.0265437266
 H         -2.4506439141       -2.2590559376        0.0828733021
 H         -0.2396885295        1.3731040583       -0.2695191066
 H          3.0007268709       -0.2733247974       -0.9278057194
