  23
        -50.74444219
 C         -2.4572774660        3.6723171076        0.2491685983
 C         -2.2752003040        2.4480375668       -0.2263048425
 C         -1.0188214670        1.7030420399       -0.1231703199
 C          0.1946823597        2.3741322538       -0.2544580270
 C          1.3991693943        1.7013117455       -0.2078664172
 C          1.3964408049        0.3235473818       -0.0341668048
 C          2.6925723041       -0.4302528724        0.0541038710
 F          3.7144292520        0.2157729806       -0.5265621737
 F          3.0631647512       -0.6410939978        1.3344614160
 F          2.6310721781       -1.6416160650       -0.5182372553
 C          0.2041590982       -0.3686724455        0.1070122335
 C         -1.0123367332        0.3073351582        0.0652038433
 C         -2.2720854204       -0.3991302014        0.2739326721
 C         -2.5146065076       -1.6760042598        0.0182881173
 F         -1.6878438860       -2.5653700067       -0.5096934161
 F         -3.6887174736       -2.2534818109        0.2482276863
 H         -3.3965615083        4.1859637283        0.1389595293
 H         -1.6853714877        4.1980520856        0.7858648118
 H         -3.0853294685        1.9431229100       -0.7351617241
 H          0.1882633924        3.4405647966       -0.4171427662
 H          2.3316468478        2.2330432419       -0.3151275232
 H          0.2311497254       -1.4354085629        0.2620168338
 H         -3.0981309232        0.1631049399        0.6816841671
  23
        -50.74402817
 C         -2.7734121950        2.7984288892        0.2147385126
 C         -2.3084069639        1.7244209841       -0.4079170474
 C         -0.9645024641        1.1775456874       -0.2366889015
 C          0.1157233673        2.0337931095       -0.0210222174
 C          1.4092439089        1.5616624648        0.0628126542
 C          1.6452024064        0.2018379372       -0.0965092084
 C          3.0386223074       -0.3512753688       -0.0155045842
 F          3.9870800651        0.5810607246       -0.1774104895
 F          3.2825501852       -0.9343661661        1.1755315052
 F          3.2699024917       -1.2969593837       -0.9425899963
 C          0.5910340884       -0.6716982307       -0.3075203137
 C         -0.7175708838       -0.2011875383       -0.3585867760
 C         -1.7809412433       -1.1914134182       -0.5325346420
 C         -2.9277457254       -1.2231928949        0.1261776780
 F         -3.3347914163       -0.3829794294        1.0662857046
 F         -3.8502115311       -2.1631108016       -0.0500117950
 H         -3.7701015863        3.1625250771        0.0376048530
 H         -2.1918929760        3.3338235326        0.9459510015
 H         -2.9436841293        1.1880216234       -1.1014336148
 H         -0.0671607980        3.0937997800        0.0583357039
 H          2.2326349428        2.2386381540        0.2286056690
 H          0.7855408121       -1.7277864244       -0.4207731111
 H         -1.5919756127       -2.0098032641       -1.2113548039
  23
        -50.74257300
 C         -3.0856996272        1.8599694813       -0.9354446369
 C         -2.2146675633        1.9605275254        0.0568338878
 C         -0.9084150426        1.2949150972        0.0848344258
 C          0.2053543841        2.0611244858        0.4257080024
 C          1.4848112616        1.5454561287        0.3723197346
 C          1.6635347742        0.2304013459       -0.0346773629
 C          3.0335548220       -0.3778821575       -0.1211921699
 F          4.0212223605        0.5144245054        0.0236511597
 F          3.2307199700       -1.3188702172        0.8230903478
 F          3.2429315792       -0.9916416766       -1.3004370183
 C          0.5698344113       -0.5621842748       -0.3461188063
 C         -0.7217383895       -0.0506404184       -0.2694641445
 C         -1.8263322692       -0.9784548320       -0.5297431259
 C         -2.9133085584       -1.0954853458        0.2128665252
 F         -3.2178635955       -0.3845592053        1.2889832197
 F         -3.8773920233       -1.9790239386       -0.0191499163
 H         -4.0114443993        2.4083903010       -0.9296329236
 H         -2.9017643133        1.2379068765       -1.7960653140
 H         -2.4107734979        2.6256382981        0.8872534707
 H          0.0595083023        3.0901500052        0.7178173884
 H          2.3359742416        2.1554147227        0.6310622427
 H          0.7223226485       -1.5914457396       -0.6351486514
 H         -1.7098888487       -1.6818288510       -1.3402681917
