  22
        -29.45446456
 C          3.2740759440       -0.0348120484       -0.0023639802
 O          2.1854789813       -0.9231708470        0.0016550252
 C          0.9218928925       -0.4047308176        0.0011209583
 C         -0.1122238626       -1.3418478325        0.0027319972
 C         -1.4322960377       -0.9363714369        0.0018611892
 C         -2.5478552656       -1.9379294962       -0.0018699430
 C         -1.7210416484        0.4258710653       -0.0008973981
 C         -0.7086444443        1.3677046088       -0.0024350914
 C         -1.0146948790        2.8361609520        0.0016073987
 C          0.6188221981        0.9479659210       -0.0012004793
 H          4.1659385240       -0.6598872905       -0.0029695275
 H          3.2797255562        0.6005180930        0.8897665578
 H          3.2759526099        0.5968103172       -0.8971386172
 H          0.1498075004       -2.3884349942        0.0043767588
 H         -2.1613777587       -2.9512646732        0.0655356507
 H         -3.1312276679       -1.8487239201       -0.9177746960
 H         -3.2188686370       -1.7622607143        0.8377246211
 H         -2.7527118400        0.7475170075       -0.0019457757
 H         -2.0839610172        3.0107257546       -0.0842726986
 H         -0.5123290180        3.3335581183       -0.8268768535
 H         -0.6632452775        3.2930395776        0.9264841525
 H          1.3972820806        1.6953404600       -0.0019574232
