  19
        -35.16899976
 C          4.5596408104       -0.9735059003       -0.0102051310
 C          3.8052474362        0.1196666996        0.0016351065
 C          2.3518075174        0.1631523918        0.0029153978
 C          1.5302449875       -0.9672477224        0.0063675417
 C          0.1579052997       -0.8214642003        0.0057747550
 C         -0.3850177604        0.4669643545        0.0017266598
 C         -1.8085598338        0.7647128091       -0.0005448549
 C         -2.8239157248       -0.0852351029       -0.0013239551
 F         -2.7721245088       -1.4121728345        0.0001113758
 F         -4.0978185086        0.2937420535       -0.0039576496
 N          0.3935969501        1.5514541685       -0.0002679454
 C          1.6974959536        1.4015267804        0.0005503547
 H          5.6340082151       -0.9104973079       -0.0111487206
 H          4.1467017527       -1.9676984861       -0.0202641123
 H          4.2820929310        1.0921657763        0.0099141186
 H          1.9607413932       -1.9570397206        0.0103576498
 H         -0.4778352772       -1.6911519149        0.0086645230
 H         -2.0521951974        1.8164043447       -0.0022828376
 H          2.2687775381        2.3221001373       -0.0011938591
