  24
        -42.11222130
 C         -4.0619989002        0.7618253304        0.0255180136
 C         -3.1990548176       -0.2454981978       -0.0444877437
 C         -1.7439404362       -0.1784150457       -0.0285699004
 C         -1.0109228162       -1.3639019053       -0.0791059346
 C          0.3758249314       -1.4322072121       -0.0623593731
 C          0.9794181951       -2.7604755770       -0.1128349230
 C          2.2220280988       -3.1136547788        0.1924334740
 C          1.1224428388       -0.2303588751       -0.0132941763
 O          2.4679574426       -0.3335378138       -0.0304898895
 C          3.2884550792        0.8110167538       -0.1535958750
 C          0.3987643011        0.9617738733        0.0358004485
 F          1.0198882046        2.1663401046        0.0977698879
 C         -0.9899146908        0.9908786636        0.0319062871
 F         -1.5655369711        2.2053843600        0.0845232047
 H         -5.1224308392        0.5754383977        0.0049655525
 H         -3.7658192107        1.7915473465        0.1053413790
 H         -3.5801668349       -1.2566312186       -0.1206062689
 H         -1.5608131630       -2.2926149470       -0.1264145199
 H          0.2826005132       -3.5334611327       -0.4148578282
 H          2.9632232509       -2.4120397116        0.5242683323
 H          2.5293572176       -4.1438990082        0.1232532701
 H          4.3021295763        0.4228587360       -0.2458817335
 H          3.2270273904        1.4523441879        0.7286276757
 H          3.0427824651        1.3923177181       -1.0450975176
