24
 energy: -37.074465326245 gnorm: 0.000024804722 xtb: 6.4.1 (23d549d)
C         4.20124447780000    0.58595775010000   -0.03602944770000
C         3.24609550630000   -0.32995810310000    0.08117818520000
C         1.80455862510000   -0.12602971670000    0.05242752010000
C         0.96822127860000   -1.24336637190000    0.10354726070000
C        -0.41702023660000   -1.17133977710000    0.08143532580000
C        -1.24345589180000   -2.37168898020000    0.14235053820000
C        -0.87456431080000   -3.58532267110000   -0.24579214190000
C        -1.01967221440000    0.09959860290000    0.02017960460000
S        -2.78043758450000    0.18832201420000   -0.01743377400000
C        -3.13380060280000    1.96795984690000    0.00685858230000
C        -0.21833898700000    1.22921607030000   -0.03277784700000
C         1.15708592170000    1.10837487590000   -0.01674215230000
F         1.85556668120000    2.26430561460000   -0.06161242510000
H         5.23958677300000    0.30193204460000   -0.00129086400000
H         4.00374290280000    1.63364610310000   -0.17015408230000
H         3.53111477990000   -1.36788652420000    0.20725826070000
H         1.42798566190000   -2.21710180880000    0.17928699210000
H        -2.24524015780000   -2.21512104710000    0.52223814110000
H         0.09458421780000   -3.78855884820000   -0.66938623010000
H        -1.54346116740000   -4.42464802610000   -0.16817376190000
H        -4.21667192760000    2.04282814840000    0.03465471640000
H        -2.75784174640000    2.43861963440000   -0.89692361150000
H        -2.71099508180000    2.42165768490000    0.89833894830000
H        -0.62971541600000    2.22354295400000   -0.08654186400000
