  30
        -34.88674724
 C          3.5107948502       -0.6422030860        0.9298197542
 C          2.8598098295       -0.4715588929       -0.4444151477
 C          1.3784614581       -0.2471538413       -0.3085850849
 C          0.5344337560       -1.3471767368       -0.2478337716
 C         -0.8359204127       -1.2282377388       -0.0856356533
 C         -1.6908302962       -2.4586370825       -0.0289568004
 C         -1.3963400017        0.0489974247        0.0206865682
 C         -2.8872016190        0.1846987194        0.1952505599
 C         -3.4170124700        1.6090630213        0.3026592169
 C         -0.5519620563        1.1463533992       -0.0407561501
 C          0.8225344766        1.0260397200       -0.1998474854
 C          1.6686070747        2.2645830613       -0.2655035281
 H          4.5811932903       -0.8083193018        0.8277716144
 H          3.0747832681       -1.4926643099        1.4492265199
 H          3.3546806732        0.2431034385        1.5419817039
 H          3.0347763977       -1.3759023447       -1.0319329323
 H          3.3284424201        0.3629056654       -0.9669974399
 H          0.9660410079       -2.3357870688       -0.3327603284
 H         -1.0811443196       -3.3534318633       -0.1263952263
 H         -2.4281500147       -2.4546900844       -0.8316280354
 H         -2.2317082932       -2.5108991376        0.9158331181
 H         -3.1796847478       -0.3663842172        1.0950601322
 H         -3.3785711873       -0.3088792582       -0.6496394674
 H         -2.9895714103        2.1201511055        1.1623816403
 H         -4.4982339852        1.5876184037        0.4253095260
 H         -3.1901818773        2.1781598249       -0.5960598685
 H         -0.9651055915        2.1400443043        0.0380733908
 H          1.0605633912        3.1506670285       -0.0997594281
 H          2.1414406255        2.3548037594       -1.2436793091
 H          2.4555507118        2.2427076866        0.4862311185
