  28
        -41.86453482
 C          4.5765893288       -0.0205062365        2.0963303135
 C          3.2995900320       -0.1685716483        1.7681915163
 C          2.6889853775        0.1517005466        0.4815175084
 C          3.3921766321        0.6771839354       -0.6069880300
 C          2.7022667919        0.9483342863       -1.7741051430
 C          1.3444775139        0.6841129827       -1.8348898000
 C          0.7225784961        0.1516150309       -0.7037324231
 C         -0.7224372937       -0.1530041278       -0.7037318331
 C         -1.3448852564       -0.6838796017       -1.8353503067
 C         -2.7029014374       -0.9469915938       -1.7746988651
 C         -3.3924972651       -0.6763338594       -0.6072747744
 C         -2.6887080601       -0.1527467249        0.4817572272
 C         -3.2988193883        0.1666947811        1.7688651465
 C         -4.5768737721        0.0241812192        2.0953959723
 N         -1.3839915122        0.0960003723        0.4150434535
 N          1.3845061569       -0.0982563472        0.4146314066
 H          4.9357671903       -0.2843598716        3.0763781469
 H          5.3159340336        0.3655322972        1.4146688597
 H          2.5907594992       -0.5598637620        2.4849205042
 H          4.4502225276        0.8729670043       -0.5399116927
 H          3.2163013679        1.3644035648       -2.6295254164
 H          0.7763386376        0.9048239466       -2.7254081237
 H         -0.7770404190       -0.9041939089       -2.7261573640
 H         -3.2173651683       -1.3617839839       -2.6304847363
 H         -4.4506993331       -0.8713200632       -0.5402839966
 H         -2.5887441641        0.5526764591        2.4872293555
 H         -5.3175395658       -0.3559337304        1.4118587668
 H         -4.9356250754        0.2870840035        3.0758494205
