23
 energy: -42.287035454741 gnorm: 0.000049465186 xtb: 6.4.1 (23d549d)
C        -4.04456385700000    1.17550135990000   -0.44319992020000
C        -3.59475097530000   -0.03226721740000   -0.12368294620000
C        -2.20095696220000   -0.43093994340000    0.02180424540000
C        -1.89532791940000   -1.76713839930000    0.29150004330000
C        -0.58979168660000   -2.18395579200000    0.42542510260000
C         0.48031232990000   -1.29878025190000    0.28419300230000
C         1.83893026900000   -1.84084762150000    0.38600885890000
C         2.81403424200000   -1.63945894120000   -0.48648139080000
C         0.17381982320000    0.04768463360000    0.05365502740000
C         1.24693490940000    1.10025705150000   -0.02006672280000
F         2.24990073830000    0.91300950040000    0.85152024910000
F         1.81445228370000    1.18968643650000   -1.24122065270000
F         0.77017826650000    2.33122015530000    0.23884930650000
C        -1.14128473280000    0.46725005770000   -0.07961337880000
H        -5.09924950980000    1.37163340310000   -0.52994640470000
H        -3.39423186990000    2.01180310530000   -0.63285486790000
H        -4.30702048210000   -0.83015041090000    0.04681715080000
H        -2.69732458560000   -2.48375540970000    0.39552113900000
H        -0.37524553320000   -3.22329374720000    0.62651826560000
H         1.99140851140000   -2.51297087200000    1.22152568380000
H         2.69312776780000   -1.01933099700000   -1.35786198240000
H         3.77712178140000   -2.10384719080000   -0.36347677690000
H        -1.34003505500000    1.51285976220000   -0.25154286310000
