17
 energy: -33.659522529477 gnorm: 0.000050209898 xtb: 6.4.1 (23d549d)
C        -1.02870559230000    2.28174006770000   -0.03092232510000
C        -1.57160791440000    1.22342580350000   -0.61614006230000
C        -1.37807946650000   -0.15172443030000   -0.19672821080000
C        -2.40439157330000   -1.13867423310000   -0.20878467120000
C        -1.87420424920000   -2.25569333700000    0.35238325200000
O        -0.59736759600000   -2.05204264890000    0.70265051500000
C        -0.27720864460000   -0.77705014620000    0.36202286160000
C         1.09270833910000   -0.40164504450000    0.60535081950000
C         1.80614642210000    0.51714942640000   -0.03127855900000
F         1.41239672100000    1.30020632140000   -1.02495027110000
F         3.07542337890000    0.78709938470000    0.26614805790000
H        -1.23769479890000    3.28084870660000   -0.37005217290000
H        -0.36637877510000    2.18899340070000    0.81314159060000
H        -2.27201487120000    1.35278558710000   -1.43094869480000
H        -3.40285419090000   -1.00771068590000   -0.57235203450000
H        -2.28785275220000   -3.22492707210000    0.54981678170000
H         1.61186200830000   -0.98926333270000    1.34833393770000
