  21
        -25.38953071
 C         -3.0625910311       -0.3727983915        0.0001377903
 C         -1.6026530349       -0.0311903673       -0.0000524564
 C         -1.1650431528        1.2845845212       -0.0001272343
 C          0.1877753640        1.5688700934       -0.0000854654
 C          1.1440701602        0.5618530268        0.0000141661
 C          2.6008433107        0.9255268185        0.0001519627
 C          0.7141352154       -0.7667032699        0.0000187558
 C          1.6659939771       -1.9292329205       -0.0000861189
 C         -0.6476022208       -1.0373793785       -0.0000115335
 H         -3.6723914808        0.5272171331       -0.0015067718
 H         -3.3150336383       -0.9619926701        0.8811875602
 H         -3.3146578614       -0.9650433143       -0.8789547900
 H         -1.8831340421        2.0923061588       -0.0002280742
 H          0.5101361794        2.6009680396       -0.0001449304
 H          2.7198348317        2.0063263677       -0.0001435099
 H          3.1007005242        0.5274414910       -0.8824488935
 H          3.1003435150        0.5279941538        0.8832130493
 H          2.7029982819       -1.6121616688        0.0017285959
 H          1.4965258813       -2.5483880011       -0.8806289726
 H          1.4940933929       -2.5506150923        0.8783975469
 H         -0.9722831982       -2.0694920449        0.0000074564
