  23
        -42.06437878
 C          4.0215840426        1.5563683216       -0.2759238873
 C          3.7211786471        0.2663944491       -0.1777966550
 C          2.3836586453       -0.3021749908       -0.0863549606
 C          2.2220788167       -1.6915577410       -0.0569780786
 C          0.9723136952       -2.2649433854        0.0160673019
 C         -0.1948168283       -1.4921418360        0.0966260304
 C         -1.4736511327       -2.1852978154        0.1892014058
 C         -2.5515550874       -1.7768091189        0.8451464226
 C         -0.0184158595       -0.1121003139        0.0572705404
 S         -1.3326942031        1.0827160852        0.0416339018
 O         -2.0694368647        1.1580474596        1.2559215965
 O         -0.8889570690        2.2901242609       -0.5624164576
 F         -2.3366223597        0.3874130821       -1.0641043488
 C          1.2247438592        0.4731412459       -0.0405329978
 H          5.0440526556        1.8859994105       -0.3404103470
 H          3.2727088268        2.3287509482       -0.3005645570
 H          4.5209807238       -0.4635421147       -0.1653876750
 H          3.0953925767       -2.3260275669       -0.1049310171
 H          0.8790288802       -3.3410389539        0.0254851207
 H         -1.4777954872       -3.1568226518       -0.2914925752
 H         -2.5923618290       -0.8439918490        1.3765105137
 H         -3.4392489825       -2.3860980321        0.8698200601
 H          1.2657379325        1.5476259882       -0.0978065768
