  43
        -65.75113963
 C          5.7285746966       -1.7704744387        0.2648739514
 O          4.7015049232       -0.8124437504        0.2264408985
 C          3.4039992775       -1.2411284068        0.1762335383
 C          3.0170771791       -2.5840768257        0.1702661280
 C          1.6814263936       -2.9339058489        0.1011624404
 C          2.4515309856       -0.2263169678        0.1271515193
 C          1.1167747617       -0.5819878229        0.0800257153
 C          0.7183303395       -1.9396584278        0.0515447984
 C         -0.7141843317       -1.9419112406       -0.0434167449
 C         -1.6740872113       -2.9392391879       -0.0930907187
 C         -3.0106122204       -2.5937011126       -0.1666591576
 C         -3.4016458999       -1.2519689235       -0.1764873129
 O         -4.7002059491       -0.8273629681       -0.2330685551
 C         -5.7237569056       -1.7885473807       -0.2843746620
 C         -2.4525220983       -0.2341127686       -0.1254809578
 C         -1.1167807027       -0.5855107271       -0.0746256205
 N         -0.0012388179        0.2237406220        0.0023662445
 C         -0.0029791849        1.6264974632        0.0013930284
 C         -0.7009882984        2.3279738698       -0.9759450681
 C         -0.7048714178        3.7098017762       -0.9667007386
 C         -0.0099095133        4.4222307569        0.0025182067
 C          0.0070666376        5.9204099535       -0.0061332537
 C          0.6895460291        3.7118379272        0.9711768451
 C          0.6922935234        2.3306514377        0.9795142854
 H          6.6582379555       -1.2036896396        0.2933778844
 H          5.7218690907       -2.4064438355       -0.6266665659
 H          5.6626681275       -2.3987489972        1.1595331424
 H          3.7584387014       -3.3659328388        0.2111769939
 H          1.3955142609       -3.9746975891        0.0828720539
 H          2.7789744033        0.8004880901        0.1155426257
 H         -1.3849867783       -3.9790957966       -0.0719360657
 H         -3.7494339909       -3.3779272400       -0.2081417296
 H         -6.6548469759       -1.2246313718       -0.3218439854
 H         -5.7248186544       -2.4263390835        0.6058817710
 H         -5.6460554594       -2.4147564974       -1.1795484906
 H         -2.7832993190        0.7916393054       -0.1162993281
 H         -1.2294297504        1.7858081264       -1.7454828816
 H         -1.2521205878        4.2438033571       -1.7303610625
 H         -0.8647824631        6.3163782596       -0.5211766995
 H          0.8978003629        6.2800112710       -0.5226559926
 H          0.0274588143        6.3131157000        1.0081088801
 H          1.2325002386        4.2490363633        1.7356934501
 H          1.2210479823        1.7900706087        1.7499716217
