26
 energy: -32.770809280933 gnorm: 0.000092226363 xtb: 6.4.1 (23d549d)
C         3.69377786660000    1.12555702480000   -0.41873375180000
C         2.89846055130000    0.22373347480000    0.13855165700000
C         1.43471867130000    0.29889246810000    0.13343923390000
C         0.81842758580000    1.53423834100000    0.32142310710000
C        -0.55294893550000    1.63300078340000    0.36055212000000
C        -1.35824480150000    0.50408420170000    0.21365003120000
C        -2.80887517030000    0.72125493710000    0.22700566880000
C        -3.67654877240000    0.21519574340000   -0.63716029690000
C        -0.75354549310000   -0.74861857320000    0.05804135080000
C        -1.57674904310000   -2.00404901680000    0.01734469670000
C         0.63958863110000   -0.84396399820000   -0.00919931470000
C         1.28119524110000   -2.17993218240000   -0.26082349810000
H         4.76662000010000    1.04486176380000   -0.36970691340000
H         3.30329441020000    1.97095688800000   -0.96077607570000
H         3.33220968010000   -0.62297425510000    0.65536249640000
H         1.42854137490000    2.41444302900000    0.45909015090000
H        -1.02056874000000    2.59769973460000    0.49879094890000
H        -3.15546907890000    1.41803776170000    0.98182871510000
H        -3.37315239520000   -0.43685362700000   -1.43848892510000
H        -4.72553337810000    0.45611126330000   -0.59018784320000
H        -2.58177826840000   -1.81684927420000    0.38447860880000
H        -1.12069507420000   -2.77463217590000    0.63614600710000
H        -1.65094514710000   -2.39115882590000   -0.99940119760000
H         0.69550185230000   -2.76118098270000   -0.96890650350000
H         1.35449599020000   -2.75208825340000    0.66552666700000
H         2.27966669570000   -2.05923322010000   -0.67086800370000
