22
 energy: -29.879029594690 gnorm: 0.000068641413 xtb: 6.4.1 (23d549d)
C         1.62425949600000    2.60352655940000    0.43453704180000
C         0.55515302140000    2.19522657570000   -0.23549906770000
C        -0.02322234240000    0.85596372530000   -0.16327003750000
C        -1.41138546040000    0.72927142970000   -0.13636111040000
C        -2.00876741090000   -0.51097718330000    0.02149460100000
C        -3.49453131660000   -0.68166789120000    0.03691691180000
C        -1.15005174780000   -1.60120104500000    0.15552698630000
N         0.15848295880000   -1.51453920730000    0.08025403550000
C         0.73806887320000   -0.32814755590000   -0.09467211890000
C         2.18658802390000   -0.33785537120000   -0.27266615600000
C         2.95640215880000   -1.34852082900000    0.11058982100000
H         1.98332307720000    3.61617087270000    0.35922779050000
H         2.16464695840000    1.94991192740000    1.09873403080000
H         0.00512013290000    2.89855995100000   -0.85013287920000
H        -2.02479388140000    1.61766258100000   -0.21617965740000
H        -3.98986286290000    0.25090959010000    0.29748530800000
H        -3.78559730550000   -1.45093325540000    0.74915963840000
H        -3.84371142600000   -0.98915923660000   -0.94948782920000
H        -1.54329985610000   -2.59782196330000    0.31631540780000
H         2.60934460080000    0.52959824750000   -0.76115137320000
H         2.52969321940000   -2.20426844240000    0.60448268820000
H         4.02026835870000   -1.34962765500000   -0.05482203180000
