  23
        -44.94826629
 C          3.3314029633        2.3005732040        0.1522353830
 C          2.7731292131        1.1092877785       -0.0475018724
 C          1.3562315438        0.8542856684        0.0356095238
 S          0.2197925506        2.1605688614        0.0993695178
 C         -1.1306719485        1.0739180357        0.0628569329
 C         -2.4581784510        1.6419090148        0.0359839623
 C         -3.5089527284        1.0973548457       -0.5666420177
 C         -0.7203504003       -0.2401160055        0.0015116685
 C         -1.7000159584       -1.3694828072        0.1640675935
 O         -2.5703451951       -1.3124941686        0.9910922916
 O         -1.5726087517       -2.4112570424       -0.6472327928
 C          0.6995951861       -0.3647548438       -0.0141660197
 C          1.4074514714       -1.6588846248       -0.1320142237
 O          1.0551821616       -2.5221576055       -0.9008998639
 O          2.4834972604       -1.8379922928        0.6393353366
 H          4.3930586129        2.4442926133        0.0638943909
 H          2.7410983920        3.1638126621        0.4112156358
 H          3.3944562971        0.2646921946       -0.3179159257
 H         -2.5442482839        2.6121366668        0.5084698997
 H         -3.4542159426        0.1544382570       -1.0816141147
 H         -4.4678356479        1.5843152481       -0.5540345115
 H         -0.6913702183       -2.4774259142       -1.0795669160
 H          2.6384266841       -1.1069507510        1.2534810754
