  22
        -42.15634029
 C         -4.0232877032        1.1132760237        0.0004235654
 C         -2.6118468766        0.6143479915        0.0000853879
 C         -1.5522608924        1.5066276954       -0.0001663724
 C         -0.2326000381        1.0807880917       -0.0006938904
 C          0.0165514039       -0.2769870810       -0.0010033157
 O          1.3065702828       -0.8530325102       -0.0019380732
 C          2.3737871933       -0.0903139828        0.0000920428
 F          2.4831534006        0.7186241592        1.0716894535
 F          3.4573452047       -0.8630247283        0.0001824224
 F          2.4852469517        0.7211881090       -1.0694033364
 C         -1.0257479614       -1.1906560484       -0.0005895612
 C         -2.3419073321       -0.7599095955        0.0000441549
 C         -3.4568964309       -1.7579906886        0.0003866298
 H         -4.0480961622        2.1994141883       -0.0017726897
 H         -4.5555194860        0.7556124105        0.8809389615
 H         -4.5572942463        0.7519021881       -0.8774692721
 H         -1.7518899515        2.5677511088        0.0000152467
 H          0.5599511633        1.8111098942       -0.0008756939
 H         -0.7865963991       -2.2419732596       -0.0007650190
 H         -3.0672039448       -2.7717801369        0.0036838360
 H         -4.0846886636       -1.6289481900       -0.8803030071
 H         -4.0883875076       -1.6245069287        0.8777200239
  22
        -42.15628469
 C         -4.1895293628        0.4753891957       -0.0691056654
 C         -2.6936647557        0.5231932850       -0.1057449814
 C         -2.0369082212        1.6972662313       -0.4505778529
 C         -0.6581332207        1.7656849710       -0.4917947456
 C          0.0786450925        0.6349208157       -0.1812702416
 O          1.4803166392        0.7977688844       -0.2499653429
 C          2.2825369900       -0.2034269171        0.0209068050
 F          2.1727663125       -0.6883441518        1.2734958624
 F          2.1379393954       -1.2733432076       -0.7854878846
 F          3.5424587978        0.2022131883       -0.1156038345
 C         -0.5492160820       -0.5460269842        0.1653448261
 C         -1.9377355933       -0.6096223565        0.2053606325
 C         -2.6071833328       -1.8937962363        0.5821824971
 H         -4.6121719515        1.4399402918       -0.3362780455
 H         -4.5401221627        0.2063092992        0.9264709723
 H         -4.5660399103       -0.2734352296       -0.7648396390
 H         -2.6142629617        2.5771458825       -0.6923582669
 H         -0.1435043674        2.6734191329       -0.7586366325
 H          0.0154344931       -1.4322032188        0.4092740800
 H         -1.8735037188       -2.6673574435        0.7899706489
 H         -3.2552609191       -2.2367058561       -0.2233862147
 H         -3.2265757207       -1.7554061953        1.4674922245
