  29
        -37.51265466
 C          3.4975659546        1.3251301692       -0.4608048499
 C          2.3630173606        1.5285879968        0.1945359084
 C          1.1871046440        0.6810997544        0.1328264709
 C         -0.1121833610        1.1516118620        0.2000472453
 N         -0.9399272383        0.1060888464        0.0119017976
 C         -2.3945229363        0.1323973010       -0.0104582156
 C         -2.8541095909        1.0423431703       -1.1544944945
 C         -2.8985723638       -1.2906616862       -0.2367955624
 C         -2.9000272798        0.6622523490        1.3353277592
 N         -0.2619947926       -1.0184955952       -0.1605851621
 C          1.0299658570       -0.7168703876       -0.0853035642
 C          1.9877653013       -1.8030518047       -0.1525298589
 C          3.1920234034       -1.8143675459        0.4028757029
 H          4.3192974640        2.0177046488       -0.3919604339
 H          3.6430525788        0.4637858113       -1.0901148874
 H          2.2385268108        2.4262040933        0.7902340253
 H         -0.4680222142        2.1516930166        0.3469940005
 H         -2.4559637035        0.6842167909       -2.1011688485
 H         -2.5147850494        2.0640402586       -1.0019867658
 H         -3.9392696490        1.0455719452       -1.2128418381
 H         -2.5206458258       -1.6774328956       -1.1785138701
 H         -3.9849245397       -1.2987196446       -0.2567418138
 H         -2.5502967351       -1.9432365284        0.5583357583
 H         -2.5649411257        1.6825805027        1.5050644067
 H         -2.5314087135        0.0380464260        2.1461857610
 H         -3.9865266380        0.6502050626        1.3539345253
 H          1.6062289980       -2.6837736651       -0.6529871768
 H          3.5806596002       -0.9687912322        0.9441897296
 H          3.8301390372       -2.6794085267        0.3386363778
