  27
        -49.33927616
 C         -3.1507332260        2.2330554393        1.0056654448
 C         -3.0435834599        1.1998865280        0.1813265380
 C         -1.8746052253        0.3267868199        0.0585563506
 C         -2.0924395151       -1.0127107606       -0.2600019901
 C         -1.0327276403       -1.8966915495       -0.3379462718
 Cl        -1.3344734671       -3.5547508447       -0.7185543647
 C          0.2653106149       -1.4776065774       -0.1128429707
 C          0.5158814733       -0.1371303621        0.1755051888
 C          1.8522674845        0.3841196335        0.4161439922
 C          3.0153687575       -0.2271556076        0.2552290420
 F          3.2394118255       -1.4635300567       -0.1718930349
 F          4.1835925949        0.3591666731        0.5057518445
 C         -0.5590069712        0.7677463027        0.2571818649
 O         -0.2823236770        2.0882985052        0.5306387640
 C         -0.3122253348        2.9413045834       -0.6084962066
 C         -0.0653494089        4.3649680927       -0.1406799056
 H         -4.0568627885        2.8125173836        1.0609830360
 H         -2.3447858051        2.5275512090        1.6549019245
 H         -3.8880976148        0.9087581341       -0.4316107322
 H         -3.0993337129       -1.3634029272       -0.4264483333
 H          1.0707246411       -2.1900933085       -0.1665878728
 H          1.8980094553        1.4038372774        0.7703233429
 H         -1.2862622291        2.8639330453       -1.1093609951
 H          0.4672617390        2.6277731287       -1.3189290385
 H         -0.8511730343        4.6734437266        0.5429731485
 H         -0.0526814262        5.0351645960       -0.9952001334
 H          0.8884133636        4.4282616527        0.3760385745
