  14
        -25.29557830
 C         -4.2064361173       -0.1484609900        0.0038315106
 C         -2.9911025207        0.3959102422       -0.0014225073
 C         -1.7760874860       -0.3735953776       -0.0021390573
 C         -0.5494147400        0.1737806001       -0.0027642823
 C          0.6592434024       -0.6034184588       -0.0018962998
 C          1.8762286929       -0.0708544613        0.0000853565
 F          2.1557041257        1.2284639927        0.0012497971
 F          3.0073509913       -0.7699252528        0.0014433405
 H         -5.0998549346        0.4510741634        0.0049650323
 H         -4.3449587442       -1.2172203389        0.0075554307
 H         -2.8773568902        1.4721290389       -0.0047926019
 H         -1.8829717896       -1.4506999642       -0.0014612645
 H         -0.4344322188        1.2491523432       -0.0032748324
 H          0.5884803678       -1.6800955536       -0.0024506310
