29
 energy: -37.046956879286 gnorm: 0.000065291081 xtb: 6.4.1 (23d549d)
C        -3.00235243740000   -2.81751588380000   -0.08637390160000
C        -2.85763860960000   -1.56205388030000    0.33149570740000
C        -1.74590636970000   -0.70511516060000    0.01945886410000
C        -0.62847083290000   -0.94620536520000   -0.73878512710000
C         0.25620902540000    0.14362262800000   -0.82384899030000
C         1.55545816800000    0.08135575090000   -1.56598614330000
C         2.74306860070000   -0.13675757140000   -0.61852505740000
C         2.67216477810000   -1.48055323950000    0.10161604570000
C         3.86156233940000   -1.68244038790000    1.03186348260000
C        -0.18754058310000    1.24202513510000   -0.11581765100000
C         0.44905057750000    2.52285010590000    0.01564385640000
C         0.00288951810000    3.52215557020000    0.77279193540000
S        -1.71285305810000    0.91199591400000    0.65346291890000
H        -3.86316195040000   -3.40167068640000    0.18674966960000
H        -2.27186223340000   -3.30177817470000   -0.71081596810000
H        -3.61678218350000   -1.11339509550000    0.95928531530000
H        -0.44363935480000   -1.88549079250000   -1.22880307440000
H         1.70917417360000    1.00692987150000   -2.12561321460000
H         1.51470679990000   -0.74123636920000   -2.28293741570000
H         2.76576234510000    0.66564227710000    0.12226989860000
H         3.66907439870000   -0.08650669710000   -1.19659902620000
H         2.64853083670000   -2.28555798120000   -0.63699585330000
H         1.74702562280000   -1.53234108120000    0.67977064980000
H         4.79450920280000   -1.65137201020000    0.47263891380000
H         3.79506679160000   -2.64405466800000    1.53527955060000
H         3.89020837560000   -0.90079338740000    1.78801862260000
H         1.35722161070000    2.64657885280000   -0.55964658680000
H        -0.89513238220000    3.42465223210000    1.36036873330000
H         0.52029756280000    4.46335981330000    0.82943350260000
