  19
        -26.71023319
 C          3.7193532873       -0.6956662656       -0.0315941857
 C          2.8430805880        0.3010819159        0.0195031952
 C          1.3943614430        0.1774098962        0.0126084357
 C          0.7080925336       -1.0404037327        0.0240289539
 C         -0.6704079946       -1.0490680925        0.0145160128
 C         -1.3639146229        0.1657148497       -0.0061484210
 C         -2.8162627930        0.2788464561       -0.0174791333
 C         -3.6882088477       -0.7220156365        0.0095484387
 N         -0.7114786011        1.3308041035       -0.0164186946
 C          0.6015451416        1.3307504337       -0.0060012849
 H          4.7794459857       -0.5093373413       -0.0240623726
 H          3.4241507146       -1.7297113846       -0.0857282542
 H          3.2047005312        1.3213308162        0.0657360571
 H          1.2509220256       -1.9738661744        0.0438719159
 H         -1.2059491428       -1.9852000271        0.0233362393
 H         -3.1621286730        1.3031806780       -0.0492993452
 H         -3.3907687942       -1.7565483807        0.0442067531
 H         -4.7489343423       -0.5387179463       -0.0012352682
 H          1.0647522630        2.3107936861       -0.0148624452
