43
 energy: -70.923475978370 gnorm: 0.000031840287 xtb: 6.4.1 (23d549d)
C        -1.99339213180000    3.85702382160000   -0.22067259280000
C        -2.87786758110000    2.61888523230000   -0.06818026680000
C        -3.82387782590000    2.48478971820000   -1.26073107300000
O        -1.93229179930000    1.52212890110000   -0.05056919410000
C        -2.35506679390000    0.25986845580000    0.08230330570000
N        -1.28122867220000   -0.60461606540000    0.09485295950000
C         0.04728964800000   -0.14294226800000    0.20425447510000
C         0.41777466420000    0.77318006440000    1.18448915690000
C         1.72502320350000    1.20078068320000    1.27143634960000
C         2.70439370630000    0.72252436090000    0.39673018530000
C         4.06125831640000    1.21813306140000    0.55037769630000
C         5.13904648730000    0.90811873960000   -0.15577574620000
F         5.23551909470000    0.06526039110000   -1.17720005090000
F         6.33968565450000    1.43412497780000    0.08265790060000
C         2.32570109380000   -0.20869621200000   -0.57310283280000
C         1.01714158900000   -0.63349312440000   -0.66658571020000
C        -1.48709449290000   -2.00142701070000   -0.01174970500000
C        -2.43992065000000   -2.52649652350000   -0.87613944820000
C        -2.61370081450000   -3.89635953640000   -0.95769236810000
C        -1.83582879300000   -4.75040557460000   -0.19495032860000
C        -0.88043705170000   -4.22721749380000    0.66030025200000
C        -0.70694312590000   -2.85971904290000    0.75758771640000
O        -3.50141916590000   -0.10312572980000    0.16657523460000
C        -3.65533744540000    2.67214157690000    1.24645350050000
H        -1.41611513450000    3.79031689850000   -1.13893331310000
H        -1.30121800950000    3.92669548100000    0.61431261910000
H        -2.60799649600000    4.75161015460000   -0.24961934620000
H        -3.25179645880000    2.39717988920000   -2.18211630280000
H        -4.46011656750000    3.36308410160000   -1.32289402660000
H        -4.44884689200000    1.60327077760000   -1.14785545110000
H        -0.32110020680000    1.14375063690000    1.87747368460000
H         2.00034125370000    1.91147505130000    2.03691035340000
H         4.22524415060000    1.93578549090000    1.34147026410000
H         3.05170974760000   -0.60251826300000   -1.26486567390000
H         0.73475219890000   -1.35329571690000   -1.42035752430000
H        -3.04657614940000   -1.86558718230000   -1.47342923390000
H        -3.35810042270000   -4.29770167450000   -1.62896747360000
H        -1.97306964690000   -5.81884313280000   -0.26566248490000
H        -0.27078938500000   -4.88574061720000    1.26099613150000
H         0.03297858530000   -2.44994039360000    1.42952634720000
H        -4.30323783420000    3.54403909390000    1.25174729180000
H        -2.96794025340000    2.74035992220000    2.08730667880000
H        -4.26421123530000    1.77944453600000    1.36041328360000
