  34
        -52.77945952
 C         -3.9161985238        3.0186004791        0.3470851346
 C         -3.7979081605        1.7009208306        0.4648551887
 C         -2.6480305132        0.8731634807        0.1267316437
 C         -2.7316883667       -0.5063353683        0.3197886374
 C         -1.7111155675       -1.4076063654        0.0372902586
 C         -1.9684942213       -2.8160339181        0.3114492588
 C         -1.1423599917       -3.8495215163        0.1951113748
 C         -0.5051889433       -0.8936860755       -0.4909222884
 O          0.4847667433       -1.7691967253       -0.7905940621
 C          1.6938036772       -1.2878878382       -1.3396259244
 C          2.5174362222       -0.4551971605       -0.3858946962
 C          2.4130609362       -0.6471764905        0.9848053482
 C          3.1752264722        0.1118158866        1.8549021866
 C          4.0535877499        1.0615041022        1.3625817487
 C          4.1668317372        1.2516654730       -0.0044024531
 C          3.3996936391        0.4992777515       -0.8754059264
 C         -0.3899545374        0.4769005642       -0.6879545197
 C         -1.4340787749        1.3280315293       -0.3842172540
 F         -1.2159157093        2.6417832927       -0.6117806668
 H         -4.8281907541        3.5149508691        0.6335753931
 H         -3.1334223874        3.6511095267       -0.0293760215
 H         -4.6362570535        1.1347277019        0.8536732275
 H         -3.6558466430       -0.9002309677        0.7191798943
 H         -2.9763900314       -3.0035232846        0.6645033282
 H         -0.1283992188       -3.7515812147       -0.1425547872
 H         -1.4742953803       -4.8444153995        0.4428210461
 H          1.5028943632       -0.7333653112       -2.2685380011
 H          2.2483696814       -2.1981915526       -1.5981552819
 H          1.7270795963       -1.3890174697        1.3671524886
 H          3.0827526202       -0.0405211293        2.9199855642
 H          4.6482921346        1.6536785269        2.0419367864
 H          4.8496515403        1.9921872535       -0.3937860208
 H          3.4841245935        0.6531863696       -1.9422233309
 H          0.5160295584        0.9195666714       -1.0680217615
