26
 energy: -41.236164932348 gnorm: 0.000198348429 xtb: 6.5.0 (unknown)
C           -4.58166234260000       -0.48079963620000        0.20179084810000
C           -3.63575918150000        0.34708038850000       -0.22214488020000
C           -2.19934025880000        0.10949693050000       -0.10106456340000
C           -1.69293348590000       -1.18778609580000       -0.14221619230000
C           -0.34215523650000       -1.46675172740000       -0.03982585390000
C            0.12953917420000       -2.88889338180000       -0.11011490050000
C            0.55483087240000       -0.39675714840000        0.10788738760000
C            1.98152341300000       -0.66085606810000        0.23071555300000
C            2.98209700110000        0.18097714960000        0.02258911820000
F            2.92360332000000        1.44994750960000       -0.36797966830000
F            4.26365137840000       -0.16175649180000        0.17141189680000
C            0.04989897660000        0.90294824700000        0.15021497510000
C           -1.30172222190000        1.17691524720000        0.04554886820000
C           -1.78177304210000        2.59548197180000        0.11515064200000
H           -5.62686502310000       -0.25338500650000        0.07912513470000
H           -4.35333199530000       -1.40601976830000        0.70396877510000
H           -3.92141365090000        1.28133126740000       -0.68667588730000
H           -2.38394266430000       -2.00636377600000       -0.28095074640000
H           -0.70832217550000       -3.55474448120000       -0.30080891880000
H            0.59397178460000       -3.18991762650000        0.82906655110000
H            0.85896431340000       -3.01795483450000       -0.90837666760000
H            2.28201566980000       -1.65708312860000        0.51707141090000
H            0.73110773140000        1.72864039420000        0.28246300740000
H           -0.95416599080000        3.26725937920000        0.32764717050000
H           -2.53363894670000        2.71080749800000        0.89432217750000
H           -2.22889900370000        2.89594147150000       -0.83252688810000
