  17
        -32.83972087
 C          3.7453084759        1.2354650309       -0.0067208698
 C          3.4102324847       -0.0518439172       -0.0014915644
 C          2.0629836588       -0.5516950632        0.0015544241
 C          1.6719166239       -1.8691403971        0.0066752324
 C          0.2832778876       -2.0380482454        0.0079853691
 C         -0.4063382989       -0.8486326187        0.0040536829
 C         -1.8324820841       -0.7062109215        0.0038503712
 C         -2.5100364201        0.4367091730       -0.0010778435
 F         -1.9972559464        1.6610680908       -0.0060668703
 F         -3.8385995467        0.5075665190       -0.0012076938
 S          0.6835045596        0.5039764697       -0.0015983689
 H          4.7729055927        1.5524053786       -0.0092599827
 H          2.9963633942        2.0103252707       -0.0087036448
 H          4.1752588730       -0.8180806688        0.0004956145
 H          2.3721011523       -2.6856156150        0.0092231582
 H         -0.2053115325       -2.9961376334        0.0117060742
 H         -2.4139869895       -1.6159104360        0.0077899396
