  16
        -33.90098936
 C          3.4979306532       -1.7804847745       -0.0004844881
 C          3.3090829744       -0.4675369064        0.0001977800
 C          2.0091888324        0.1683749866        0.0001001341
 C          0.7144046661       -0.4179340005       -0.0000778854
 C         -0.1349061214        0.6596078788       -0.0001084602
 C         -1.5678468430        0.7963563401       -0.0003923390
 C         -2.4216208584       -0.2185941695       -0.0000515195
 F         -2.1059346761       -1.5050958452        0.0005785768
 F         -3.7380767340       -0.0812360162       -0.0002355805
 O          0.5966214048        1.7933103903        0.0000330346
 N          1.9040594499        1.4799830730        0.0003305693
 H          4.4868176823       -2.2045934512       -0.0004425282
 H          2.6782029151       -2.4789922988       -0.0013129824
 H          4.1400754601        0.2228325389        0.0007098648
 H          0.4561157477       -1.4543390009       -0.0000150644
 H         -1.9612076710        1.8001880851       -0.0007894522
