16
 energy: -33.900989362852 gnorm: 0.000142019069 xtb: 6.4.1 (23d549d)
C         3.49793065320000   -1.78048477450000   -0.00048448810000
C         3.30908297440000   -0.46753690640000    0.00019778000000
C         2.00918883240000    0.16837498660000    0.00010013410000
C         0.71440466610000   -0.41793400050000   -0.00007788540000
C        -0.13490612140000    0.65960787880000   -0.00010846020000
C        -1.56784684300000    0.79635634010000   -0.00039233900000
C        -2.42162085840000   -0.21859416950000   -0.00005151950000
F        -2.10593467610000   -1.50509584520000    0.00057857680000
F        -3.73807673400000   -0.08123601620000   -0.00023558050000
O         0.59662140480000    1.79331039030000    0.00003303460000
N         1.90405944990000    1.47998307300000    0.00033056930000
H         4.48681768230000   -2.20459345120000   -0.00044252820000
H         2.67820291510000   -2.47899229880000   -0.00131298240000
H         4.14007546010000    0.22283253890000    0.00070986480000
H         0.45611574770000   -1.45433900090000   -0.00001506440000
H        -1.96120767100000    1.80018808510000   -0.00078945220000
