  25
        -39.38631121
 C          3.6949508623        1.3553077804        0.0053952185
 O          2.2906932881        1.1679745043        0.0138742244
 C          1.8747227566       -0.1032295235       -0.0034938732
 O          2.6389511378       -1.0408797943       -0.0199040630
 C          0.3920401931       -0.1969708940        0.0013859172
 N         -0.2472104666        0.9725883379        0.0116996220
 C         -1.5667140769        1.0055137861        0.0091543264
 N         -2.1406671051        2.2486306439       -0.0596289686
 C         -2.3510239484       -0.1707275860        0.0067818074
 C         -3.8459265432       -0.1004136861       -0.0015798444
 C         -1.6718327041       -1.3696411867        0.0079213603
 C         -0.2754189189       -1.4240751422        0.0029124568
 C          0.4269821917       -2.7408971742       -0.0007769673
 H          3.8591749829        2.4294891479        0.0328953035
 H          4.1328712096        0.9237247720       -0.8979166497
 H          4.1505101228        0.8748508105        0.8747539102
 H         -1.4947205150        3.0053445550        0.0988157446
 H         -3.0606720990        2.3640331953        0.3299351367
 H         -4.1929465461        0.4806481568       -0.8553883850
 H         -4.2154544513        0.3777188148        0.9070067026
 H         -4.2733482082       -1.0981751235       -0.0603574827
 H         -2.2324503442       -2.2952124446        0.0083744911
 H         -0.2926902984       -3.5568794137        0.0068733479
 H          1.0787017117       -2.8277409439        0.8664471777
 H          1.0624238095       -2.8300855162       -0.8797533631
  25
        -39.38332006
 C          3.9192772986        0.1162375267        0.7176915704
 O          2.5134870732       -0.0744699113        0.7866479137
 C          1.8243901265        0.2498714967       -0.3173909717
 O          2.3388120340        0.6693361457       -1.3195954942
 C          0.3566302757        0.0218094301       -0.1321196948
 N         -0.4001992039        1.0883629529       -0.3607906194
 C         -1.7167598699        0.9931945830       -0.2405813337
 N         -2.4196602724        2.1569932888       -0.4113488585
 C         -2.3563823624       -0.2148345733        0.1078328682
 C         -3.8465315260       -0.2884215516        0.2366175928
 C         -1.5473086868       -1.3124538270        0.3176814893
 C         -0.1591946073       -1.2256218208        0.2074864696
 C          0.7123031649       -2.4234132766        0.4264214940
 H          4.3120948126       -0.1509632636        1.6953385567
 H          4.1490040727        1.1571088268        0.4818405002
 H          4.3506740591       -0.5212781115       -0.0571471538
 H         -1.8782846483        2.9053362849       -0.8140056417
 H         -3.3735505753        2.0864440938       -0.7224065143
 H         -4.2019337571        0.4456875739        0.9589409685
 H         -4.1506506527       -1.2785189764        0.5665777683
 H         -4.3282248664       -0.0840071500       -0.7208971276
 H         -1.9977312974       -2.2617768239        0.5760055037
 H          0.1085774264       -3.3261034808        0.4878364287
 H          1.2748429670       -2.3170087633        1.3528498231
 H          1.4261388731       -2.5342038618       -0.3881916683
