20
 energy: -30.666913095860 gnorm: 0.000032082462 xtb: 6.4.1 (23d549d)
C        -3.86056366710000    0.56867546950000   -0.01346630900000
C        -3.04094546560000   -0.47611289450000    0.01599594400000
C        -1.58586078160000   -0.44038090340000    0.00862314570000
C        -0.86994675020000   -1.64010876190000    0.00979790200000
C         0.50687019410000   -1.64818005510000    0.00189484240000
C         1.26126383050000   -0.46945693930000   -0.00459133160000
C         2.71327505600000   -0.57074039150000   -0.01011256490000
C         3.60161032410000    0.41718533380000    0.01737627520000
C         0.52403938970000    0.71865145290000   -0.00552854760000
F         1.14980276050000    1.91751174770000   -0.01466562050000
C        -0.85354231470000    0.74607565460000    0.00044515850000
H        -4.92915821380000    0.44005980070000   -0.00563537660000
H        -3.51002045790000    1.58565103030000   -0.04771750710000
H        -3.46318000190000   -1.47315932700000    0.04667729240000
H        -1.40767752890000   -2.57719263480000    0.01577679900000
H         1.03116533350000   -2.59310375220000    0.00218328520000
H         3.07244289010000   -1.59312910090000   -0.03701418140000
H         3.33102630440000    1.45658656610000    0.04772269700000
H         4.65744505260000    0.20394570620000    0.01085920160000
H        -1.34298071790000    1.70659485600000    0.00007205560000
