41
 energy: -49.698869604791 gnorm: 0.000033924592 xtb: 6.4.1 (23d549d)
C        -4.17180698810000    1.12970805330000    2.65938364520000
C        -4.36366835780000    0.39457658060000    1.56625735220000
C        -3.34621483550000    0.03052911910000    0.61792698610000
C        -2.00621306940000    0.32851555580000    0.60433313100000
C        -1.31049444650000   -0.20118163680000   -0.49593848070000
C         0.15957641660000   -0.02946448080000   -0.75225530250000
C         0.84614065360000    0.95345896950000    0.19356884690000
C         2.30668802160000    1.21274040510000   -0.18145072860000
C         3.21712894060000    0.01382623990000    0.07585144320000
C         4.66546741190000    0.25322154400000   -0.35465174060000
C         5.38617323190000    1.38803326680000    0.37710896080000
C         5.45202918080000    1.23819333580000    1.89769789120000
C         6.20895829990000   -0.00610967510000    2.34676046200000
C        -2.13414606850000   -0.92373237980000   -1.33885916990000
C        -1.76858351000000   -1.61017213050000   -2.54632439970000
C        -2.60838868540000   -2.29478783160000   -3.31941885580000
S        -3.77325000900000   -0.93375881270000   -0.76044853340000
H        -4.98366387560000    1.36285334130000    3.32521712690000
H        -3.20542212810000    1.52130355790000    2.92541743960000
H        -5.35368456180000    0.02155727000000    1.33725087070000
H        -1.54304817990000    0.91584228530000    1.37473126930000
H         0.29893520280000    0.31958419660000   -1.78002515930000
H         0.63929675420000   -1.00940608640000   -0.67303024280000
H         0.80389781330000    0.57125594810000    1.21584829900000
H         0.30708085430000    1.90345643940000    0.16280391820000
H         2.66195199560000    2.06168611820000    0.40537825560000
H         2.36545441080000    1.49232708060000   -1.23646697550000
H         2.84535340890000   -0.84898062310000   -0.48105358160000
H         3.18281623630000   -0.24422806850000    1.13577100540000
H         4.67821948170000    0.47970481570000   -1.42426505610000
H         5.22602105480000   -0.67319287500000   -0.21489753270000
H         4.89950932710000    2.33629263700000    0.14002073480000
H         6.40653957320000    1.44367102380000   -0.01146761620000
H         4.44290826050000    1.22000681070000    2.31260168500000
H         5.95275668910000    2.12109743990000    2.30338661280000
H         5.68420714620000   -0.91119898440000    2.05216524950000
H         6.31393812360000   -0.01374579920000    3.42955524590000
H         7.20369369290000   -0.02566042290000    1.90629823280000
H        -0.72199650850000   -1.54541683780000   -2.81332116120000
H        -3.65480225740000   -2.37864210780000   -3.07652181160000
H        -2.27635220430000   -2.79067275650000   -4.21414708120000
