  23
        -38.06469133
 C         -4.7305367733       -1.0243161196       -0.0624975484
 C         -3.8329813104       -0.0655812173       -0.2580606776
 C         -2.4072539662       -0.1378052483        0.0336619181
 C         -1.8185973775       -1.2091082878        0.7084269473
 C         -0.4634830448       -1.2170892444        0.9472918145
 C          0.3615839458       -0.1787446469        0.5093956680
 C          1.7928133220       -0.3013415676        0.7943566567
 C          2.7903462537       -0.0825931122       -0.0438390907
 F          2.7097406027        0.2857990793       -1.3168581962
 F          4.0746771324       -0.2395025830        0.2802780014
 C         -0.2140600813        0.9212539159       -0.1367519165
 C          0.5856481597        2.1152582989       -0.5582550806
 C         -1.5833943769        0.9151431786       -0.3585630089
 H         -5.7669463246       -0.8799542753       -0.3150944706
 H         -4.4765534003       -1.9865768842        0.3476651705
 H         -4.1565485292        0.8747492366       -0.6879869077
 H         -2.4229097923       -2.0318201823        1.0559393748
 H         -0.0172617802       -2.0512690463        1.4696144793
 H          2.0689841045       -0.6691200328        1.7724141781
 H          1.4233563223        2.2865175151        0.1145167731
 H         -0.0420843872        3.0033662096       -0.5689578661
 H          0.9825284313        1.9728352542       -1.5628320052
 H         -2.0279052951        1.7656688889       -0.8572956242
