  23
        -37.89388355
 C          3.8365924488        0.6317963576        0.9015492172
 C          3.1749193587        0.7140031186       -0.4672918962
 O          1.7564499628        0.8021015058       -0.3540310751
 C          1.0907659893       -0.3399457247       -0.2096873700
 O          1.6060031182       -1.4364625570       -0.1931474028
 C         -0.3540379126       -0.1246560912       -0.0849219275
 N         -0.9515059601        1.1154639562       -0.0887481332
 C         -2.2128493232        0.8909907595        0.0415457932
 C         -3.2980671811        1.8951851087        0.0954879991
 O         -2.5160342087       -0.4285404133        0.1344819263
 C         -1.3335619997       -1.0779673140        0.0546423216
 C         -1.2875265779       -2.5539998938        0.1217932769
 H          4.9168029075        0.6372055756        0.7865612737
 H          3.5396620990       -0.2868667400        1.4016226700
 H          3.5376813153        1.4798894212        1.5126714337
 H          3.4315055060       -0.1683194729       -1.0638182673
 H          3.4737190749        1.6222473139       -0.9945946075
 H         -2.8624687605        2.8848759166        0.0086026232
 H         -3.8396279675        1.8124014713        1.0363687709
 H         -4.0025061479        1.7304389554       -0.7181705180
 H         -1.7149021692       -2.9021916203        1.0613461163
 H         -0.2526514277       -2.8738316916        0.0469934725
 H         -1.8669919713       -2.9867952745       -0.6928499373
