  22
        -29.45255484
 C          3.1953277385       -0.0580728666        0.0005744952
 O          1.9589351674       -0.7231067742       -0.0001480940
 C          0.8108363127        0.0249845814       -0.0003345702
 C          0.7954123335        1.4134901066       -0.0002782174
 C         -0.4125640682        2.0895115317       -0.0000913055
 C         -1.6021855658        1.3914919946        0.0001222595
 C         -1.6025812038        0.0015405474        0.0000000642
 C         -2.9001048579       -0.7486406103        0.0003898742
 C         -0.3948942344       -0.6919072926       -0.0003258788
 C         -0.3756605915       -2.1913806923       -0.0001885793
 H          3.9509758207       -0.8429113889        0.0009203802
 H          3.3211376101        0.5623979771        0.8943133731
 H          3.3220443903        0.5624985160       -0.8929558563
 H          1.7135777510        1.9790293606       -0.0002788837
 H         -0.4159542164        3.1695601483        0.0000889523
 H         -2.5410021819        1.9257135562        0.0004018354
 H         -3.7413329900       -0.0603509269        0.0006113626
 H         -2.9742101959       -1.3874820365        0.8797675658
 H         -2.9748154624       -1.3875057469       -0.8789354415
 H         -0.8915405127       -2.5798904340       -0.8777167451
 H         -0.8818784190       -2.5793402927        0.8832498447
 H          0.6471117916       -2.5529820192       -0.0055442102
