  23
        -42.29055210
 C          1.5484844969        3.7883713759       -0.0395726363
 C          2.1100180318        2.5878751130        0.0323328959
 C          1.4189002693        1.3032642663        0.0171791630
 C          2.1722975611        0.1304013747        0.0079469027
 C          1.5877718471       -1.1341239880       -0.0087025344
 C          2.4497126059       -2.3110405629       -0.0176746871
 C          2.0582494572       -3.5791519402        0.0061725867
 C          0.1951020608       -1.2201224202       -0.0157216000
 C         -0.5616246982       -0.0610302683       -0.0048178016
 C         -2.0622612014       -0.1271284215       -0.0010584268
 F         -2.5461527513       -1.3717092907       -0.1128894770
 F         -2.5893583759        0.3817796534        1.1304793107
 F         -2.6060886152        0.5820707643       -1.0085738607
 C          0.0294203880        1.1934269231        0.0131746647
 H          2.1450712970        4.6840470175       -0.0235528744
 H          0.4852960691        3.9340043964       -0.1208718792
 H          3.1881538078        2.5153623998        0.1039648989
 H          3.2511762565        0.2051305027        0.0126544427
 H          3.5094153794       -2.0890856678       -0.0428800925
 H          1.0233753422       -3.8731685576        0.0359659173
 H          2.7742704991       -4.3826883538       -0.0020233544
 H         -0.2978207554       -2.1781928003       -0.0313053799
 H         -0.5964972322        2.0710782463        0.0261064322
