  51
        -58.13206422
 C         -6.7374704561        3.5855281900        0.8495961896
 C         -7.0517589602        2.7863373146       -0.4099329811
 C         -5.8352852967        2.0494209798       -0.9713444477
 C         -5.3427914998        0.9269300530       -0.0599561938
 C         -4.2811819217        0.0426683015       -0.7157387574
 C         -2.9923147065        0.7677572102       -1.1089382688
 C         -2.2664060143        1.4659146811        0.0425606209
 C         -1.8540155278        0.5494021960        1.1959766708
 C         -0.9367533042       -0.6111660602        0.8038676149
 C          0.3759667420       -0.2016430912        0.1354946922
 C          1.2719742710        0.6483761344        1.0319522372
 C          2.6335247584        0.9269175877        0.3830850714
 C          3.4249568449       -0.3292321608        0.1872477798
 C          3.9900266879       -1.0531507497        1.2731016182
 C          4.6541736575       -2.1756220400        0.9044693468
 C          5.3635517042       -3.1643322731        1.7596173926
 S          4.6037531207       -2.3764421305       -0.8205352894
 C          3.6716582629       -0.9209317201       -1.0140260798
 C          3.2645496535       -0.4810768536       -2.3789365593
 H         -7.6106613378        4.1520405165        1.1657370689
 H         -5.9251725617        4.2851682312        0.6630235897
 H         -6.4468802452        2.9294190307        1.6658825994
 H         -7.4291625532        3.4695091889       -1.1750281433
 H         -7.8433570090        2.0650311139       -0.1933052414
 H         -5.0332208540        2.7710422895       -1.1366205397
 H         -6.1026715250        1.6211411563       -1.9410269802
 H         -6.1940642238        0.2947753315        0.2075239346
 H         -4.9450701271        1.3471113684        0.8638344147
 H         -4.7065280644       -0.4046253903       -1.6184876774
 H         -4.0397619593       -0.7752457459       -0.0337385465
 H         -3.2219733466        1.5153377222       -1.8713307366
 H         -2.3200138704        0.0404363093       -1.5689970261
 H         -2.9063660881        2.2537933281        0.4453256047
 H         -1.3781518171        1.9563041627       -0.3616529957
 H         -2.7497250487        0.1317371534        1.6604189746
 H         -1.3571797304        1.1578351977        1.9549495974
 H         -1.4741339437       -1.2817480999        0.1302887667
 H         -0.7044754191       -1.1805747981        1.7080004203
 H          0.1676201659        0.3422102700       -0.7878436174
 H          0.9178539362       -1.1117279631       -0.1342724615
 H          1.4245655923        0.1300066960        1.9811731862
 H          0.7876154785        1.6032485127        1.2433667915
 H          3.2000935112        1.6030274397        1.0293316217
 H          2.4818918554        1.4233552335       -0.5765966860
 H          3.9018744793       -0.7334819023        2.2971395293
 H          5.2873571662       -2.8720297341        2.8044306035
 H          6.4172585075       -3.2241568081        1.4872815572
 H          4.9319107190       -4.1580469086        1.6400419929
 H          3.6411673140       -1.1773524601       -3.1239308328
 H          3.6632861907        0.5097117147       -2.5993938659
 H          2.1787742406       -0.4367701299       -2.4638610828
