22
 energy: -34.710158534501 gnorm: 0.000016793805 xtb: 6.4.1 (23d549d)
C        -3.56592760500000   -1.67341795410000    0.01102818060000
C        -3.00126931080000   -0.47308721150000   -0.00394883590000
C        -1.57138895090000   -0.18672404720000   -0.00303028290000
C        -0.57455129830000   -1.19244034850000    0.00018321620000
C         0.76216210080000   -0.85723659220000    0.00184700090000
C         1.87499016370000   -1.79290078040000    0.00478876010000
C         1.77922781980000   -3.11737859800000   -0.00084368280000
C         1.05914300010000    0.52442643910000    0.00076758980000
N         2.21086370750000    1.16923149430000    0.00260244180000
C         1.89568397000000    2.47745924510000   -0.00040226450000
C         0.53218882930000    2.66659292400000   -0.00427705480000
N        -0.00497165720000    1.42433509150000   -0.00345225620000
N        -1.28175728320000    1.09682393350000   -0.00563718780000
H        -4.63650647320000   -1.78328533500000    0.00981479920000
H        -3.00030553280000   -2.58950522910000    0.02568013690000
H        -3.61206253470000    0.41902449460000   -0.01668391950000
H        -0.87403238330000   -2.22602437950000    0.00080092330000
H         2.84183747670000   -1.30938582870000    0.01145275320000
H         0.83433201240000   -3.63464911070000   -0.00857362170000
H         2.65712036190000   -3.73960282150000    0.00169076920000
H         2.66620649910000    3.22323550120000    0.00045779500000
H        -0.06964023850000    3.55026511140000   -0.00733361900000
