  26
        -48.71743907
 C          0.1914863201       -3.7838305765       -0.3226304092
 C          0.9448026967       -2.8514673746        0.2439142712
 C          0.7026241591       -1.4121658434        0.1314369948
 C         -0.5891362945       -0.9430155581        0.1187903719
 C         -0.8961715864        0.4316497792        0.0502724124
 C         -2.2507806338        0.9562660626        0.0366182306
 C         -3.3904459162        0.2822895257       -0.0024258562
 F         -3.5640931347       -1.0340365881       -0.0389640005
 F         -4.5824301631        0.8729353517       -0.0147911092
 C          0.1638272603        1.3153141282        0.0089599458
 F         -0.0851984632        2.6437676419       -0.0404774546
 C          1.5091806764        0.9010653538        0.0093589947
 C          2.5688490909        1.8310476136       -0.0532175515
 C          3.8654435920        1.4018654935       -0.0770399096
 C          4.1500522328        0.0297677575       -0.0476023793
 C          3.1397627328       -0.8915061153        0.0176279499
 C          1.7892682759       -0.4911352843        0.0627318951
 H          0.4002570710       -4.8320757244       -0.1953887578
 H         -0.6497642238       -3.5371258392       -0.9482802572
 H          1.7967290537       -3.1452756394        0.8421016759
 H         -1.3954371895       -1.6529427321        0.1913699252
 H         -2.3491239410        2.0322959195        0.0504765432
 H          2.3321050924        2.8837843711       -0.0871397665
 H          4.6749509486        2.1144359751       -0.1256261076
 H          5.1783144915       -0.2987963129       -0.0806734208
 H          3.3798673384       -1.9430742768        0.0225556173
