  23
        -42.43670415
 C         -0.6978973019        3.2823989994       -0.4932112464
 C          0.2191573617        2.5770210138        0.1573435669
 C          0.3673353635        1.1321786830        0.1076903938
 C         -0.6624422907        0.2204447064        0.0861014461
 C         -2.0598221252        0.5187681726        0.2228412559
 C         -3.0661416054       -0.3299509917        0.0485116869
 F         -2.9850929901       -1.6003064512       -0.3248705386
 F         -4.3434409754        0.0030351727        0.2180206967
 S         -0.1015252272       -1.4362100997       -0.0007226831
 C          1.5534651223       -0.9064559213        0.0038456826
 C          2.6779601953       -1.7162177681       -0.0529624333
 C          3.9193552766       -1.1156877942       -0.0415597422
 C          4.0379655495        0.2728498254        0.0196864536
 C          2.9223398903        1.0774142764        0.0708679353
 C          1.6518962058        0.4955804279        0.0710586187
 H         -0.7409625943        4.3550128350       -0.4120206263
 H         -1.4135771368        2.8234467410       -1.1541209843
 H          0.9602377125        3.0881889553        0.7592241482
 H         -2.3181159301        1.5261238539        0.5139400867
 H          2.5739875955       -2.7887355860       -0.1048510744
 H          4.8088279182       -1.7257620119       -0.0829403943
 H          5.0208066435        0.7198732819        0.0237135668
 H          3.0224418716        2.1514492297        0.1081907987
