  17
        -32.83453801
 C          1.2707453065       -2.8244105489       -0.4524951262
 C          1.9041928428       -1.8465958208        0.1815568841
 C          1.5167546378       -0.4429668820        0.1647701276
 C          2.4377175436        0.5632045486        0.1394603235
 S          1.7257011332        2.1211072748        0.0467984851
 C          0.1571331020        1.4376814957        0.0700883690
 C          0.1752093016        0.0715504840        0.1384854259
 C         -0.9972399239       -0.7689560872        0.2681952925
 C         -2.2412338072       -0.4236064914       -0.0252432846
 F         -2.6526210112        0.7371120663       -0.5272152572
 F         -3.2902921994       -1.2279556699        0.1360190769
 H          1.6257927461       -3.8398406394       -0.4104926327
 H          0.3977046536       -2.6486465792       -1.0579048766
 H          2.8147668363       -2.0599474967        0.7273730147
 H          3.5056687042        0.4694248403        0.1409169391
 H         -0.6963545386        2.0847781338        0.0553895408
 H         -0.8472411632       -1.7661506309        0.6524597959
