24
 energy: -42.130506517514 gnorm: 0.000057246111 xtb: 6.5.0 (unknown)
C           -2.44892210600000        3.24216617930000        0.01514244290000
C           -2.84759898390000        1.97587199310000       -0.00276306120000
C           -1.99757529570000        0.79207860010000       -0.00284793660000
C           -2.58938215020000       -0.46992225450000       -0.00713176090000
C           -1.82747206400000       -1.62262561110000       -0.00553148540000
C           -0.44052320180000       -1.55132931930000       -0.00032280550000
O            0.38115433860000       -2.63621872570000        0.00186817460000
C           -0.19016880360000       -3.92198737110000        0.00335664650000
C            0.18508292680000       -0.28342641340000        0.00224805840000
C            1.63846309080000       -0.24695319420000        0.00673441610000
C            2.44002593580000        0.80649943210000       -0.00069329380000
F            2.11088664290000        2.09557591630000       -0.01402526060000
F            3.77016681770000        0.70812833870000        0.00439881680000
C           -0.60579530510000        0.85789031120000        0.00120274880000
H           -3.16007418120000        4.05023180840000        0.01410186240000
H           -1.41181271390000        3.52887974150000        0.03196801410000
H           -3.90962988980000        1.76169447800000       -0.01777306090000
H           -3.66668282660000       -0.55389603090000       -0.01123208590000
H           -2.32795203630000       -2.57801598900000       -0.00853501200000
H            0.64986865470000       -4.61496239640000        0.00853624490000
H           -0.79473878250000       -4.09491151720000       -0.89245057460000
H           -0.80161144840000       -4.08972155020000        0.89547378330000
H            2.13135502540000       -1.20719618200000        0.01636348070000
H           -0.12962941050000        1.82261621070000        0.00339891270000
