48
 energy: -55.804221895203 gnorm: 0.000049689565 xtb: 6.4.1 (23d549d)
C         3.25834726700000    2.84525713210000    1.51467863000000
C         3.44210596160000    1.65656329750000    0.94960087330000
C         2.39495115010000    0.79205408490000    0.45517976720000
C         1.04109141580000    0.99698267550000    0.52925997830000
N         0.36842828420000   -0.04402894760000   -0.04923396100000
Si       -1.39993706880000   -0.15065733440000   -0.13647298590000
C        -2.05922148480000    0.09862989770000    1.66418799240000
C        -1.07028784570000   -0.42320043350000    2.71036052150000
C        -2.43509862660000    1.53803036970000    2.01401552950000
C        -1.94593905670000    1.12484426120000   -1.47515397150000
C        -3.46487244940000    1.16795546890000   -1.64234935760000
C        -1.40075935120000    2.53679598740000   -1.26563213730000
C        -1.99387661920000   -1.88671712040000   -0.72495715460000
C        -1.66627715810000   -2.18398026130000   -2.18832994400000
C        -1.51558456790000   -3.03202841820000    0.16710153970000
C         1.30822964090000   -0.92677252380000   -0.49881530380000
C         2.56969680550000   -0.46846368610000   -0.21554845040000
C         3.82740866290000   -1.10986580760000   -0.52398813830000
C         3.96724555410000   -2.29923684440000   -1.10005642120000
H         4.08692240310000    3.43807263630000    1.86223697020000
H         2.27886235630000    3.27110932120000    1.64980354870000
H         4.45107788820000    1.28194344010000    0.83703119440000
H         0.50286260840000    1.81640275420000    0.95906343210000
H        -2.97486859040000   -0.49739376210000    1.75359636280000
H        -0.16268089830000    0.17510996610000    2.71302312810000
H        -0.78874921590000   -1.45367021320000    2.51419600910000
H        -1.51329071420000   -0.37259599000000    3.70403875350000
H        -1.56524060420000    2.18852876980000    1.97317485020000
H        -2.83633287480000    1.58457487770000    3.02582206270000
H        -3.19015991710000    1.92567846360000    1.33594659030000
H        -1.52587740500000    0.77244761810000   -2.42484405210000
H        -3.94579424160000    1.52919720430000   -0.73704677130000
H        -3.86209104670000    0.18127206740000   -1.86503895640000
H        -3.73821952200000    1.83661967080000   -2.45733582460000
H        -1.79240537520000    2.97886369040000   -0.35405129530000
H        -1.69009831070000    3.17625229120000   -2.09878311650000
H        -0.31538770960000    2.52643302120000   -1.21000993830000
H        -3.08758478960000   -1.86978541330000   -0.64805331120000
H        -0.59446635610000   -2.18784778330000   -2.36461193140000
H        -2.11312940680000   -1.44352988320000   -2.84593017190000
H        -2.05621022740000   -3.16179214290000   -2.46942132130000
H        -0.43077104620000   -3.07402434190000    0.21256542580000
H        -1.87517735720000   -3.98545420020000   -0.21877334380000
H        -1.89561182280000   -2.91665611440000    1.17844546190000
H         1.01611772160000   -1.82574542320000   -0.99889924400000
H         4.71523463730000   -0.55444607550000   -0.25113844280000
H         3.12207260140000   -2.89908068300000   -1.39113719090000
H         4.93877850910000   -2.71718330130000   -1.30072091240000
