  24
        -42.13042014
 C         -3.8043349886        2.5064748402        0.0140353345
 C         -2.4945465037        2.2892686512       -0.0024644407
 C         -1.8236107506        0.9956564627       -0.0019527146
 C         -2.5049872703       -0.2199796548       -0.0039644633
 C         -1.8226127943       -1.4209083774       -0.0025912726
 C         -0.4332946938       -1.4502260795        0.0009020094
 O          0.3072414022       -2.5918706388        0.0025572699
 C         -0.3551816233       -3.8331988613        0.0025776147
 C          0.2820921918       -0.2317511948        0.0021099227
 C          1.7340814492       -0.2980810162        0.0058805209
 C          2.6075259853        0.6966524436       -0.0018602195
 F          2.3692025099        2.0053429627       -0.0155877399
 F          3.9274953708        0.5052608090        0.0031081013
 C         -0.4300980772        0.9609367229        0.0003326579
 H         -4.2041708854        3.5057628868        0.0125428805
 H         -4.5296874112        1.7111825050        0.0302574534
 H         -1.8235645494        3.1392895031       -0.0164500680
 H         -3.5832654606       -0.2372936834       -0.0074643332
 H         -2.3884068366       -2.3392146479       -0.0044178171
 H          0.4329046877       -4.5847596862        0.0052972987
 H         -0.9717261251       -3.9605478814       -0.8927052460
 H         -0.9758580687       -3.9583144581        0.8953088017
 H          2.1578984981       -1.2907158975        0.0155938817
 H          0.1067675489        1.8957998497        0.0016997483
