22
 energy: -36.896038118490 gnorm: 0.000198295490 xtb: 6.4.1 (23d549d)
C         4.04899009420000    0.58934820050000   -0.09843795260000
C         3.30824915510000   -0.51280062570000   -0.10528041030000
C         1.85506333470000   -0.57722420430000   -0.02428573100000
C         1.22354630260000   -1.82383714290000    0.05700622360000
C        -0.14685175040000   -1.93145733430000    0.14774946160000
C        -0.97507721140000   -0.80634511360000    0.14400026060000
C        -2.41834443590000   -0.95819658690000    0.29384991290000
C        -3.11522209590000   -1.94560342050000   -0.25302447290000
C        -0.33730047470000    0.44032270160000    0.04623951210000
N        -1.08950933080000    1.66502213820000   -0.01969996630000
O        -2.24653521990000    1.61433445590000   -0.38280478780000
O        -0.51264135120000    2.69029839380000    0.28282026260000
C         1.04368525860000    0.55171349590000   -0.02802902720000
H         5.12223473370000    0.53892934010000   -0.15990035680000
H         3.62737142370000    1.57713150520000   -0.02840339560000
H         3.79678342220000   -1.47724262730000   -0.16795227290000
H         1.82698337830000   -2.72018735800000    0.05890511740000
H        -0.60190693650000   -2.90531267230000    0.24345561930000
H        -2.92727740400000   -0.20485659780000    0.87896795250000
H        -2.66014275820000   -2.68278173940000   -0.89388962130000
H        -4.17766106940000   -2.02845159160000   -0.10721540590000
H         1.46577289520000    1.54149268770000   -0.10555019250000
