  32
        -39.10481971
 C         -2.9071054789        2.3345787171       -0.2700075893
 C         -2.6091533623        1.1889928590        0.3285266588
 C         -1.2885955974        0.5627352317        0.3225860140
 C         -0.1444499485        1.3576910124        0.3263434844
 C          1.1351435494        0.8310984629        0.3321931975
 C          2.3160570276        1.7604519966        0.2858251723
 C          2.9545250776        1.7701920564       -1.1040589152
 C          1.2883303908       -0.5624183642        0.3227178545
 C          2.6088780127       -1.1886957111        0.3290279682
 C          2.9071293268       -2.3340569645       -0.2697442210
 C          0.1442018216       -1.3573786164        0.3265741846
 C         -1.1353999266       -0.8307853529        0.3323503473
 C         -2.3161756423       -1.7603247689        0.2862172093
 C         -2.9535837202       -1.7718096699       -1.1041456943
 H         -3.8971596917        2.7558773563       -0.2244824530
 H         -2.1823318851        2.8865902349       -0.8448949402
 H         -3.3862582108        0.6567684278        0.8620678470
 H         -0.2647948729        2.4316255372        0.3460410968
 H          3.0639390792        1.4634309788        1.0247578706
 H          1.9880032101        2.7715716837        0.5361275653
 H          3.3022950277        0.7746883805       -1.3705456469
 H          3.8002324034        2.4540172844       -1.1299827735
 H          2.2278262552        2.0887106698       -1.8483644852
 H          3.3856907137       -0.6567335360        0.8632914519
 H          2.1826608604       -2.8859541847       -0.8451524070
 H          3.8972175365       -2.7552707172       -0.2238874230
 H          0.2645942795       -2.4313033735        0.3464056000
 H         -3.0646506037       -1.4626065108        1.0242497565
 H         -1.9881174424       -2.7710902599        0.5379202540
 H         -3.3018330915       -0.7767761486       -1.3717743613
 H         -3.7988175076       -2.4562484547       -1.1300562822
 H         -2.2261309234       -2.0905255025       -1.8476394285
  32
        -39.10415871
 C         -2.8628487444        2.3624074945       -0.0597219640
 C         -2.5504419388        1.1569789574       -0.5165925635
 C         -1.2433932296        0.5202326838       -0.3669786448
 C         -0.0873863646        1.2972321363       -0.3791413904
 C          1.1802365448        0.7580216008       -0.2470133578
 C          2.3683587515        1.6818477867       -0.2610862285
 C          2.6876326806        2.1753248246        1.1520210060
 C          1.3101174441       -0.6286555344       -0.0975313828
 C          2.6178771860       -1.2660285666        0.0574146733
 C          2.9284569934       -2.4718020523       -0.3994804066
 C          0.1541455892       -1.4067687162       -0.0911752541
 C         -1.1136112127       -0.8686728401       -0.2254971389
 C         -2.3115539434       -1.7735554273       -0.1438027229
 C         -3.0227798384       -1.6249262681        1.2021323357
 H         -3.8409890379        2.7878033046       -0.2082171445
 H         -2.1632306550        2.9638552044        0.4964662112
 H         -3.3041557110        0.5805637879       -1.0376022726
 H         -0.1845151373        2.3642787204       -0.5213197458
 H          2.1440494758        2.5440577954       -0.8932010803
 H          3.2390926302        1.1786077256       -0.6836163474
 H          1.8340970624        2.7081067370        1.5654545929
 H          3.5428037862        2.8476582398        1.1371920059
 H          2.9143610534        1.3400510471        1.8109269372
 H          3.3704572236       -0.6932181808        0.5822685140
 H          2.2279112836       -3.0725683464       -0.9552076919
 H          3.9056727882       -2.8989401974       -0.2499226163
 H          0.2528821553       -2.4740514408        0.0475494878
 H         -1.9887377663       -2.8097482623       -0.2649860466
 H         -3.0137447355       -1.5497305644       -0.9502696728
 H         -2.3417352310       -1.8687459990        2.0147175662
 H         -3.8801381819       -2.2924356731        1.2558056283
 H         -3.3672429433       -0.6025237041        1.3400986493
  32
        -39.10164866
 C         -2.8272897567        2.3079357693        0.6232093715
 C         -2.5253963231        1.2859834117       -0.1663652314
 C         -1.2524475878        0.5670584625       -0.1483249251
 C         -0.0740842352        1.2526085887        0.1342943489
 C          1.1648867326        0.6340561595        0.1772892163
 C          2.3918134448        1.4793674082        0.3839519752
 C          2.8916364973        2.0080949996       -0.9622224285
 C          1.2326721988       -0.7372754805       -0.0816225563
 C          2.4836929314       -1.5117294424       -0.0479533190
 C          3.2642215987       -1.6425069136        1.0120801900
 C          0.0611302821       -1.4199013913       -0.3963767395
 C         -1.1777109275       -0.8032298803       -0.4349089307
 C         -2.4035991791       -1.6259558434       -0.7178245203
 C         -3.2081674434       -1.8716861831        0.5595171764
 H         -3.7788411559        2.8085932376        0.5624212076
 H         -2.1462812782        2.6717512933        1.3745166618
 H         -3.2607607129        0.9365990528       -0.8797216744
 H         -0.1264338524        2.3178292812        0.3095453901
 H          3.1865624588        0.9021702932        0.8535985684
 H          2.1485079900        2.3225262319        1.0339036141
 H          3.1647072736        1.1792760442       -1.6118289908
 H          3.7647461593        2.6417345795       -0.8230724130
 H          2.1147245519        2.5883657280       -1.4555833130
 H          2.7183976693       -2.0476946111       -0.9607297243
 H          3.0357840500       -1.1610193555        1.9491063187
 H          4.1532959810       -2.2504617664        0.9923792269
 H          0.1255031103       -2.4798363480       -0.6046644959
 H         -2.1021845734       -2.5865785777       -1.1409408992
 H         -3.0373853764       -1.1249248841       -1.4532500887
 H         -2.5970538331       -2.3936675004        1.2927343591
 H         -4.0866124398       -2.4768208583        0.3458158642
 H         -3.5311990264       -0.9280948375        0.9934212380
  32
        -39.10158613
 C         -3.5340192251        1.4217779434       -0.3832085821
 C         -2.3687375333        1.6635550708        0.1993038982
 C         -1.1655576898        0.8285587119        0.1355860467
 C          0.0455403210        1.4867416831       -0.0806624607
 C          1.2565327351        0.8270001552       -0.1787007008
 C          2.5067231463        1.6282582729       -0.4234805499
 C          3.1315792807        2.0784153961        0.8991083624
 C          1.2744315477       -0.5660078130       -0.0230544969
 C          2.5186835180       -1.3322395424       -0.0937493220
 C          2.6154223957       -2.5719000322       -0.5552697919
 C          0.0710335241       -1.2180035760        0.2272975791
 C         -1.1470641905       -0.5598573612        0.3051555508
 C         -2.3738699702       -1.3765737850        0.6069006128
 C         -2.8130989687       -2.1949618719       -0.6087714107
 H         -4.3558688327        2.1138849205       -0.3021264887
 H         -3.7112113153        0.5454875913       -0.9815802156
 H         -2.2358938112        2.5935278493        0.7413456979
 H          0.0291914044        2.5623522494       -0.1994199961
 H          2.2555396350        2.5126327086       -1.0134427707
 H          3.2288873645        1.0431408544       -0.9945847652
 H          2.4282350577        2.6929927542        1.4566958139
 H          4.0324065294        2.6604112533        0.7163936850
 H          3.3915985513        1.2207686452        1.5155859220
 H          3.4110672812       -0.8313012840        0.2561630117
 H          1.7653444148       -3.1071843411       -0.9442122108
 H          3.5562901801       -3.0953610208       -0.5777815543
 H          0.0898445366       -2.2853279009        0.3960936989
 H         -3.1888446002       -0.7284917084        0.9299739048
 H         -2.1452917255       -2.0649955091        1.4252414870
 H         -3.0192470121       -1.5467655259       -1.4575834747
 H         -3.7119257196       -2.7634126064       -0.3794750147
 H         -2.0298454042       -2.8899761710       -0.9025440235
  32
        -39.10157293
 C         -2.8304964273        2.3974970789       -0.2040607887
 C         -2.5534243256        1.1605864415       -0.5938637817
 C         -1.2726547750        0.4860233311       -0.3865429719
 C         -0.0890156817        1.2190427965       -0.4247096167
 C          1.1583643575        0.6413152644       -0.2563995775
 C          2.3805528850        1.5177140945       -0.2277298983
 C          2.7912608957        1.8051217411        1.2174379740
 C          1.2275638755       -0.7358177216       -0.0289695438
 C          2.4943156328       -1.4630977087        0.1590270341
 C          3.4532281742       -1.5594950901       -0.7465069178
 C          0.0464852511       -1.4682286855        0.0318996442
 C         -1.1997954268       -0.8942224903       -0.1553328394
 C         -2.4320452926       -1.7470246425       -0.0363420803
 C         -3.1598056811       -1.4843720791        1.2830822112
 H         -3.7895704329        2.8491896726       -0.3937201433
 H         -2.1199198241        3.0012322008        0.3355309034
 H         -3.3172330163        0.5849054496       -1.1009878785
 H         -0.1472860633        2.2815304490       -0.6138886512
 H          2.1631191462        2.4595804838       -0.7353623150
 H          3.2120741992        1.0378882578       -0.7424146636
 H          1.9737646396        2.2779197243        1.7576901901
 H          3.6547353208        2.4660617644        1.2441826820
 H          3.0484211841        0.8783800992        1.7254950771
 H          2.5852581670       -1.9930754461        1.1007346498
 H          3.3750020944       -1.0831886825       -1.7102807638
 H          4.3487264791       -2.1311897939       -0.5686591042
 H          0.1112205591       -2.5321361753        0.2186106653
 H         -2.1467138006       -2.8000627921       -0.0843812282
 H         -3.1118105672       -1.5504756026       -0.8687717422
 H         -2.5027858926       -1.6992191469        2.1231366145
 H         -4.0426085047       -2.1150464756        1.3630437440
 H         -3.4675868715       -0.4431913268        1.3474950378
  32
        -39.10154329
 C         -2.7358566816        2.5605329603       -0.4263772977
 C         -2.5242236347        1.3403132457        0.0479225472
 C         -1.2790712686        0.5879186093       -0.1100214755
 C         -0.0600933913        1.2578541496       -0.1334257624
 C          1.1601337058        0.6091282361       -0.2494751266
 C          2.4083103058        1.4486811180       -0.2730907321
 C          2.7466835358        1.9881216926        1.1179581447
 C          1.1644304833       -0.7847331282       -0.3666203030
 C          2.3688356916       -1.6089816643       -0.5061629412
 C          3.4807367583       -1.5156539789        0.2082526566
 C         -0.0601493498       -1.4530671502       -0.3843340502
 C         -1.2744205266       -0.8073482910       -0.2431604007
 C         -2.5392497487       -1.6226201969       -0.2382006578
 C         -2.8893910256       -2.0720781832        1.1821908584
 H         -3.6700301019        3.0734184879       -0.2713442257
 H         -1.9945079274        3.0889745015       -1.0022456906
 H         -3.3158550737        0.8439883816        0.5929932335
 H         -0.0624658103        2.3343838598       -0.0385206207
 H          2.2491965640        2.2964591364       -0.9452323124
 H          3.2464588029        0.8672047739       -0.6577977917
 H          1.9410171138        2.6178859759        1.4883352801
 H          3.6600338491        2.5782442673        1.0843876582
 H          2.8854825975        1.1737813999        1.8254982120
 H          2.2818581269       -2.4013349297       -1.2415114324
 H          3.6065193125       -0.7876744508        0.9903102038
 H          4.3068363443       -2.1893471387        0.0511096902
 H         -0.0546011974       -2.5291887324       -0.4992741686
 H         -2.3976615812       -2.5076161218       -0.8627550806
 H         -3.3652327148       -1.0479110764       -0.6595731498
 H         -2.0832286299       -2.6749339796        1.5945769286
 H         -3.8012213861       -2.6655070095        1.1803613844
 H         -3.0354672905       -1.2136170768        1.8340755432
  32
        -39.10017577
 C         -2.6551499721        2.6625019441       -0.2451883634
 C         -2.4386538888        1.4666554054        0.2857432762
 C         -1.2037088021        0.6973182663        0.1337266790
 C          0.0176255039        1.3655632421        0.0769758168
 C          1.2241768836        0.7027138217       -0.0558315987
 C          2.5437660915        1.4331456523       -0.0920728634
 C          2.4723695964        2.9365848833        0.1458294870
 C          1.2043012433       -0.6980365169       -0.1300382670
 C          2.4394809181       -1.4678192483       -0.2777483847
 C          2.6544311159       -2.6624195198        0.2566255648
 C         -0.0171527578       -1.3662172090       -0.0742806728
 C         -1.2237629075       -0.7032933613        0.0571610806
 C         -2.5436305382       -1.4334301722        0.0896446394
 C         -2.4737978587       -2.9337722306       -0.1675816189
 H         -3.5806391860        3.1911942044       -0.0914231423
 H         -1.9262019376        3.1526902154       -0.8688534106
 H         -3.2182614894        1.0032140405        0.8766050917
 H          0.0029130322        2.4397761289        0.1634228272
 H          3.0088290330        1.2584334860       -1.0684007697
 H          3.2017920864        0.9893790075        0.6611155578
 H          1.8952535114        3.4299354410       -0.6328975726
 H          3.4772443792        3.3542292926        0.1355030762
 H          2.0236113142        3.1562502947        1.1119115560
 H          3.2208583814       -1.0058145592       -0.8673514278
 H          1.9238895531       -3.1507815089        0.8798874378
 H          3.5801476483       -3.1917153182        0.1064512966
 H         -0.0024328625       -2.4404693494       -0.1603121605
 H         -3.2039850397       -0.9802320416       -0.6557831707
 H         -3.0051463663       -1.2704750528        1.0697142273
 H         -2.0230684070       -3.1409840688       -1.1355167656
 H         -3.4792274628       -3.3502281109       -0.1650724892
 H         -1.8990872216       -3.4383835777        0.6056690404
  32
        -39.09906386
 C         -3.5251771090        1.4323934376        0.6148785187
 C         -2.3670650198        1.7058514650        0.0324844840
 C         -1.1935926196        0.8294154647       -0.0413627822
 C          0.0456685181        1.4159708274        0.2174925928
 C          1.2336949149        0.7070617363        0.2123133574
 C          2.5313884978        1.4329759817        0.4386949868
 C          3.2063917898        1.7416556969       -0.8987508193
 C          1.1897011907       -0.6530883416       -0.1104974413
 C          2.3835546642       -1.5141063839       -0.1550839469
 C          3.1661212817       -1.7754922268        0.8784541391
 C         -0.0346105075       -1.2262118183       -0.4288195341
 C         -1.2314566855       -0.5247193211       -0.3874092195
 C         -2.4934208504       -1.2560077498       -0.7546863782
 C         -2.9333659667       -2.2054902733        0.3613492290
 H         -4.3234795424        2.1555322644        0.6432455486
 H         -3.7188150546        0.4949741015        1.1059029998
 H         -2.2142676885        2.6903621097       -0.3959670969
 H          0.0722088922        2.4721959744        0.4514251260
 H          3.2079526831        0.8324588734        1.0455955751
 H          2.3363994125        2.3673687579        0.9688197411
 H          3.4391375145        0.8177097405       -1.4234037829
 H          4.1307283986        2.2928683283       -0.7409660458
 H          2.5483865496        2.3377220249       -1.5275524242
 H          2.5681751757       -1.9970711708       -1.1082888542
 H          2.9845325140       -1.3487002524        1.8514466963
 H          4.0109422256       -2.4391271902        0.7992960534
 H         -0.0545956311       -2.2703304051       -0.7121453479
 H         -2.3091950140       -1.8437264562       -1.6583090292
 H         -3.2915307834       -0.5456851751       -0.9716758078
 H         -2.1673742767       -2.9549557584        0.5471224918
 H         -3.8554514410       -2.7132213518        0.0864610727
 H         -3.0995822303       -1.6617132692        1.2885655958
  32
        -39.09896631
 C         -3.3451006041        1.6977670230       -0.7576211296
 C         -2.3888735884        1.5307471765        0.1403391115
 C         -1.1931542046        0.6914808355       -0.0484782213
 C          0.0474386435        1.3150606610       -0.0241242158
 C          1.2418472983        0.6296111812       -0.1971380878
 C          2.5211981451        1.4205075979       -0.1823827321
 C          2.8943039646        1.8544605870        1.2364813072
 C          1.1885515215       -0.7522349031       -0.4029721878
 C          2.3586647218       -1.6114080142       -0.6125984443
 C          3.4812944421       -1.6083126056        0.0907516379
 C         -0.0602473457       -1.3733527526       -0.4368449562
 C         -1.2496024085       -0.6906553951       -0.2542048725
 C         -2.5428586298       -1.4557596435       -0.1938558242
 C         -2.9516350236       -1.6870979559        1.2618514867
 H         -4.1853152657        2.3482419833       -0.5805103009
 H         -3.3188465912        1.2024191145       -1.7146274237
 H         -2.4233576497        2.0793304337        1.0751231061
 H          0.0800571132        2.3872503912        0.1179190334
 H          2.3883929000        2.3156976856       -0.7961911642
 H          3.3319403855        0.8332401113       -0.6141569002
 H          2.1186094732        2.4909433627        1.6560658602
 H          3.8305732031        2.4084711484        1.2302252957
 H          3.0062996672        0.9908594919        1.8882096537
 H          2.2325197999       -2.3487589344       -1.3978442367
 H          3.6444941590       -0.9391471621        0.9172077257
 H          4.2787416085       -2.3009840644       -0.1221061364
 H         -0.0945892562       -2.4431476968       -0.5963666889
 H         -2.4178546003       -2.4197324233       -0.6910909812
 H         -3.3376549181       -0.9108341343       -0.7018980299
 H         -2.1696692866       -2.2239966840        1.7947919636
 H         -3.8697581563       -2.2681480593        1.3123223504
 H         -3.1163538752       -0.7347281336        1.7608317327
