  24
        -37.66412329
 C          3.4981275108        0.3897206898       -1.2280544024
 C          3.0905408317       -0.2843987642       -0.1596456228
 C          1.7173278968       -0.4205152763        0.2729054364
 N          1.3350926944       -1.5499451036        0.9227145308
 N          0.0330123116       -1.5975044358        1.1760353906
 C         -0.4620018832       -0.4677755918        0.6964791400
 N         -1.8182043573       -0.1624828283        0.8017555003
 C         -2.7273300928       -0.1437048134       -0.2174155441
 C         -2.1712695474       -0.4335741588       -1.5916849609
 O         -3.8944687864        0.0882159018        0.0012497884
 C          0.5561849738        0.3442407472        0.1258386248
 C          0.3391020072        1.7080679928       -0.3085712062
 C          1.2568893687        2.6646264820       -0.3773377960
 H          4.5369058139        0.4214203857       -1.5067514728
 H          2.8085906298        0.9213000212       -1.8603678964
 H          3.8058810346       -0.8428659477        0.4334660254
 H          1.9214658259       -2.3289889561        1.1782971082
 H         -2.2159897576       -0.1689755204        1.7321219713
 H         -1.5433761783        0.3844793774       -1.9353084856
 H         -2.9989270574       -0.5589157898       -2.2838771106
 H         -1.5718989630       -1.3409363122       -1.5635486144
 H         -0.6975981409        1.9531985775       -0.5027038123
 H          2.2922776232        2.4873663387       -0.1435765793
 H          0.9914164813        3.6692636418       -0.6575902377
