  22
        -29.90729937
 C          3.2479061716       -1.3637669334       -0.1791744898
 C          2.0498847903       -0.4715360800       -0.0635661321
 C          2.1139061489        0.8749229257       -0.3885082178
 C          0.9910190066        1.6764599269       -0.2900683281
 C         -0.2273762174        1.1655703395        0.1337559899
 C         -1.4326562753        2.0511113019        0.2282689516
 C         -0.2948108157       -0.1883440528        0.4699549219
 C         -1.5964076080       -0.8013581003        0.9351947472
 C         -2.5070255574       -0.9291081432       -0.1754935699
 N         -3.2141217564       -1.0290591808       -1.0683624447
 C          0.8326271913       -0.9862635388        0.3638711603
 H          4.1509423969       -0.7820887456       -0.3453779346
 H          3.1234000955       -2.0516916060       -1.0155482106
 H          3.3739574246       -1.9578668695        0.7244281646
 H          3.0478405848        1.3022091276       -0.7238458281
 H          1.0610583244        2.7226980631       -0.5511751830
 H         -1.1988878393        3.0511778511       -0.1274620362
 H         -1.7771734717        2.1288523753        1.2605453106
 H         -2.2516026534        1.6534595734       -0.3703408817
 H         -2.0701487906       -0.1796683907        1.7008850411
 H         -1.4218304870       -1.7976312493        1.3503677230
 H          0.7681686490       -2.0355093454        0.6196344329
