  23
        -50.74444219
 C         -2.4572774660        3.6723171076        0.2491685983
 C         -2.2752003040        2.4480375668       -0.2263048425
 C         -1.0188214670        1.7030420399       -0.1231703199
 C          0.1946823597        2.3741322538       -0.2544580270
 C          1.3991693943        1.7013117455       -0.2078664172
 C          1.3964408049        0.3235473818       -0.0341668048
 C          2.6925723041       -0.4302528724        0.0541038710
 F          3.7144292520        0.2157729806       -0.5265621737
 F          3.0631647512       -0.6410939978        1.3344614160
 F          2.6310721781       -1.6416160650       -0.5182372553
 C          0.2041590982       -0.3686724455        0.1070122335
 C         -1.0123367332        0.3073351582        0.0652038433
 C         -2.2720854204       -0.3991302014        0.2739326721
 C         -2.5146065076       -1.6760042598        0.0182881173
 F         -1.6878438860       -2.5653700067       -0.5096934161
 F         -3.6887174736       -2.2534818109        0.2482276863
 H         -3.3965615083        4.1859637283        0.1389595293
 H         -1.6853714877        4.1980520856        0.7858648118
 H         -3.0853294685        1.9431229100       -0.7351617241
 H          0.1882633924        3.4405647966       -0.4171427662
 H          2.3316468478        2.2330432419       -0.3151275232
 H          0.2311497254       -1.4354085629        0.2620168338
 H         -3.0981309232        0.1631049399        0.6816841671
