  42
        -60.35603635
 C          3.9598883704       -1.0242327266        0.3495914827
 C          2.7404953240       -1.9052876288        0.0737613334
 C          2.5855983136       -2.9636501437        1.1655812950
 O          1.6320220655       -0.9774615807        0.1104113106
 C          0.3788178480       -1.4018156947       -0.1065206444
 N         -0.4910497532       -0.3394937945       -0.0588304391
 C         -0.0075852412        0.9940835197       -0.0130701564
 C          0.8654563275        1.4731237128       -0.9820584550
 C          1.3173157021        2.7767421736       -0.9197246925
 C          0.9023153155        3.6327408093        0.0940877388
 C          1.4130531771        5.0398307626        0.1589422276
 C          0.0187375334        3.1467885193        1.0492470079
 C         -0.4330662123        1.8414480989        1.0019576830
 C         -1.8899250518       -0.5309633092       -0.0541662230
 C         -2.4741522031       -1.6044053085        0.6090234911
 C         -3.8489306912       -1.7546339143        0.5999385173
 C         -4.6537049048       -0.8371400179       -0.0533006142
 C         -4.0733301824        0.2368718511       -0.7069484146
 C         -2.7001865647        0.3905542833       -0.7128217566
 O          0.0411669774       -2.5424843243       -0.3082978188
 C          2.8481144722       -2.5528546149       -1.3066456784
 H          3.8590077426       -0.5439345004        1.3191712263
 H          4.0381606354       -0.2497272417       -0.4088090296
 H          4.8638261149       -1.6258224527        0.3408328499
 H          2.4599940985       -2.4836734099        2.1339873293
 H          3.4716089164       -3.5916834374        1.1949596760
 H          1.7175620157       -3.5853783138        0.9648276621
 H          1.1851672578        0.8220903396       -1.7813861581
 H          1.9970530432        3.1409933550       -1.6768458168
 H          1.5031849618        5.4649741706       -0.8384086424
 H          2.4011517366        5.0565571691        0.6199369506
 H          0.7521263327        5.6669803507        0.7519964294
 H         -0.3187471327        3.7965387286        1.8439104203
 H         -1.1218718287        1.4727501548        1.7478152932
 H         -1.8542212765       -2.3221165223        1.1203429726
 H         -4.2936821358       -2.5929763788        1.1153355361
 H         -5.7266176615       -0.9577627661       -0.0537734224
 H         -4.6917956834        0.9573571306       -1.2217999750
 H         -2.2483922915        1.2254147471       -1.2282059743
 H          3.7292136419       -3.1872162812       -1.3450706353
 H          2.9324222907       -1.7863758249       -2.0744543809
 H          1.9681171970       -3.1577147047       -1.5075150095
  42
        -60.35588659
 C          2.7726603386       -2.8591793736        1.1684652674
 C          1.7583966544       -3.0432815096        0.0399236200
 C          0.9428083596       -4.3191923851        0.2546082477
 O          0.7665569287       -1.9915432569        0.0772291362
 C          1.1239011752       -0.7103538792       -0.0910740913
 N          0.0150535144        0.0998248297       -0.0505012879
 C          0.1463582162        1.5067527535        0.0133009817
 C         -0.7484815955        2.3051420853       -0.6908602808
 C         -0.6500642329        3.6821695499       -0.6283976985
 C          0.3414973984        4.2950010832        0.1253545605
 C          0.4649275909        5.7872281891        0.1869543122
 C          1.2313933571        3.4869596191        0.8238356132
 C          1.1375355407        2.1098185674        0.7791239345
 C         -1.2953736305       -0.4376013269       -0.0659912938
 C         -2.2078081736       -0.0328375489        0.9021179423
 C         -3.4953768983       -0.5361270196        0.8923486197
 C         -3.8812576716       -1.4463008734       -0.0774126694
 C         -2.9748305175       -1.8447407264       -1.0456363494
 C         -1.6879900684       -1.3393211324       -1.0482906950
 O          2.2486178349       -0.3016252202       -0.2453651085
 C          2.4523847349       -3.0729971525       -1.3216988801
 H          2.2574837457       -2.7912215755        2.1244645791
 H          3.3471661905       -1.9504619294        1.0118635147
 H          3.4512614239       -3.7072362801        1.1925503814
 H          0.4258154666       -4.2729542747        1.2093496698
 H          1.5972326868       -5.1856263798        0.2440326077
 H          0.1996110609       -4.4229158698       -0.5315532951
 H         -1.5223453818        1.8433665628       -1.2864982982
 H         -1.3536433129        4.2876226678       -1.1818060594
 H         -0.3641479732        6.2685388918       -0.3253948525
 H          1.3944060637        6.1075623313       -0.2830047512
 H          0.4822069433        6.1270336073        1.2214235760
 H          2.0075318510        3.9453122847        1.4196779898
 H          1.8368506839        1.5015813212        1.3290257114
 H         -1.9005258236        0.6775798125        1.6554898745
 H         -4.1985126595       -0.2194939989        1.6484490630
 H         -4.8861581195       -1.8410953845       -0.0809524510
 H         -3.2744572937       -2.5466573754       -1.8099785961
 H         -0.9842248469       -1.6389277025       -1.8095585510
 H          3.1378107103       -3.9147754219       -1.3642679352
 H          3.0107016752       -2.1541862190       -1.4788389001
 H          1.7157944448       -3.1786331994       -2.1157105154
