24
 energy: -45.670013737068 gnorm: 0.000037330526 xtb: 6.4.1 (23d549d)
C        -5.61209407660000   -1.62540257790000    0.13578729100000
C        -5.37011471030000   -0.32072095050000    0.03656473750000
C        -4.06397310060000    0.27326964370000   -0.01008097560000
C        -3.76541358440000    1.61133695220000   -0.11053808030000
C        -2.39408233440000    1.88222798380000   -0.13313388120000
C        -1.61667623910000    0.74856531070000   -0.04999223890000
C        -0.19385045360000    0.66029177890000   -0.04662789010000
C         0.71898564520000    1.68999023730000   -0.12455571960000
C         2.04853548200000    1.26124049780000   -0.09671904710000
C         2.17729549070000   -0.10420164120000    0.00298164090000
C         3.35175003070000   -0.92442925210000    0.05935184250000
C         4.60983551880000   -0.49757561110000    0.02272711210000
F         5.02096256330000    0.76250260960000   -0.07236419390000
F         5.66491318210000   -1.30542134140000    0.07843953230000
S         0.61740143810000   -0.87080587940000    0.06360511990000
S        -2.60916384090000   -0.67506989360000    0.05816138600000
H        -6.61417116510000   -2.01418743950000    0.16652187890000
H        -4.80922590780000   -2.34234142100000    0.18909509850000
H        -6.18836809240000    0.38648523980000   -0.01602463610000
H        -4.52274216620000    2.37343968230000   -0.16615994110000
H        -1.98392188170000    2.87277399190000   -0.20790155040000
H         0.43174248380000    2.72264962590000   -0.19943532510000
H         2.88759905540000    1.93033596060000   -0.14802731530000
H         3.20825195150000   -1.99120987140000    0.13887514490000
