  19
        -26.71078341
 C          3.6154409761        0.8773228464        0.0408706204
 C          2.8404583882       -0.1994320929       -0.0221645539
 C          1.3865381236       -0.2205606722       -0.0144391310
 C          0.7066023435       -1.4418150745       -0.0005292064
 C         -0.6722688835       -1.4599752521        0.0097316486
 C         -1.3688471310       -0.2473811978        0.0036510140
 C         -2.8250885419       -0.2240429666        0.0150935015
 C         -3.5390089803        0.8953858857        0.0034048964
 N         -0.7237004445        0.9213442108       -0.0150720654
 C          0.5884356805        0.9301687448       -0.0239750269
 H          4.6886470973        0.7938394568        0.0306839890
 H          3.2198404492        1.8760209016        0.1076222078
 H          3.3022606687       -1.1785885371       -0.0800739246
 H          1.2658904270       -2.3680984116        0.0042880095
 H         -1.2123277113       -2.3953453374        0.0217558252
 H         -3.3071181507       -1.1931000370        0.0337551909
 H         -3.0465901966        1.8521930514       -0.0155392009
 H         -4.6153889516        0.8873669880        0.0123180317
 H          1.0357283582        1.9151741937       -0.0441119790
