  19
        -26.71078341
 C          3.6154409761        0.8773228464        0.0408706204
 C          2.8404583882       -0.1994320929       -0.0221645539
 C          1.3865381236       -0.2205606722       -0.0144391310
 C          0.7066023435       -1.4418150745       -0.0005292064
 C         -0.6722688835       -1.4599752521        0.0097316486
 C         -1.3688471310       -0.2473811978        0.0036510140
 C         -2.8250885419       -0.2240429666        0.0150935015
 C         -3.5390089803        0.8953858857        0.0034048964
 N         -0.7237004445        0.9213442108       -0.0150720654
 C          0.5884356805        0.9301687448       -0.0239750269
 H          4.6886470973        0.7938394568        0.0306839890
 H          3.2198404492        1.8760209016        0.1076222078
 H          3.3022606687       -1.1785885371       -0.0800739246
 H          1.2658904270       -2.3680984116        0.0042880095
 H         -1.2123277113       -2.3953453374        0.0217558252
 H         -3.3071181507       -1.1931000370        0.0337551909
 H         -3.0465901966        1.8521930514       -0.0155392009
 H         -4.6153889516        0.8873669880        0.0123180317
 H          1.0357283582        1.9151741937       -0.0441119790
  19
        -26.71023319
 C          3.7193532873       -0.6956662656       -0.0315941857
 C          2.8430805880        0.3010819159        0.0195031952
 C          1.3943614430        0.1774098962        0.0126084357
 C          0.7080925336       -1.0404037327        0.0240289539
 C         -0.6704079946       -1.0490680925        0.0145160128
 C         -1.3639146229        0.1657148497       -0.0061484210
 C         -2.8162627930        0.2788464561       -0.0174791333
 C         -3.6882088477       -0.7220156365        0.0095484387
 N         -0.7114786011        1.3308041035       -0.0164186946
 C          0.6015451416        1.3307504337       -0.0060012849
 H          4.7794459857       -0.5093373413       -0.0240623726
 H          3.4241507146       -1.7297113846       -0.0857282542
 H          3.2047005312        1.3213308162        0.0657360571
 H          1.2509220256       -1.9738661744        0.0438719159
 H         -1.2059491428       -1.9852000271        0.0233362393
 H         -3.1621286730        1.3031806780       -0.0492993452
 H         -3.3907687942       -1.7565483807        0.0442067531
 H         -4.7489343423       -0.5387179463       -0.0012352682
 H          1.0647522630        2.3107936861       -0.0148624452
  19
        -26.71013171
 C          3.7454185759        0.5976290554       -0.0055032330
 C          2.8337165136       -0.3681725312       -0.0007968280
 C          1.3900302386       -0.1949369943        0.0010905290
 C          0.5528198650       -1.3149473650        0.0020713974
 C         -0.8164922473       -1.1550098839        0.0024777916
 C         -1.3482498263        0.1381834379        0.0018666261
 C         -2.7740580262        0.4370898102        0.0009247269
 C         -3.7669749805       -0.4442665016       -0.0054226746
 N         -0.5516644337        1.2106168169        0.0023486851
 C          0.7513917025        1.0504315601        0.0019956166
 H          4.7978605300        0.3714166080       -0.0069526962
 H          3.4867151103        1.6422950895       -0.0081489641
 H          3.1607349099       -1.4017650609        0.0012336919
 H          0.9852973010       -2.3068637987        0.0020909202
 H         -1.4649888374       -2.0166937324        0.0033630630
 H         -2.9857516715        1.4977698916        0.0051413882
 H         -3.6043548758       -1.5089229656       -0.0105116925
 H         -4.7955540040       -0.1266366883       -0.0061419152
 H          1.3224453662        1.9692938721        0.0027315487
