  27
        -36.83020927
 C         -2.8972303895       -1.5284627328        0.7166969642
 C         -2.5966974797       -0.3677262113        0.1489430942
 C         -1.2702819633        0.2297718835        0.0270290563
 C         -1.1917966103        1.6146416296       -0.1002352930
 C          0.0165472539        2.2767894924       -0.2424725030
 C          0.0688474497        3.7683756132       -0.3839256811
 C          1.1773334702        1.5232248313       -0.2187090327
 C          1.1537327312        0.1383083614       -0.0661521904
 C          2.4466433859       -0.5356409832        0.0882666921
 C          2.6971193036       -1.4751054511        0.9893250101
 C         -0.0807309235       -0.5230979198        0.0060568706
 O         -0.1968427021       -1.8897889580        0.0188638725
 C          0.5741059905       -2.6391663055       -0.8949389301
 H         -3.9166529199       -1.8748380719        0.7663505471
 H         -2.1480228808       -2.1642363118        1.1511152821
 H         -3.3962060006        0.2502115940       -0.2441488364
 H         -2.1099931626        2.1854904251       -0.0970856674
 H         -0.8396052603        4.1452869128       -0.8477457535
 H          0.9241534565        4.0708760967       -0.9837513725
 H          0.1646815926        4.2329117228        0.5980165183
 H          2.1365294288        2.0166225914       -0.2943024326
 H          3.2488369665       -0.1528038354       -0.5317510297
 H          1.9314128898       -1.8386073747        1.6547101075
 H          3.6791705048       -1.9021368602        1.1055914818
 H         -0.0886949340       -3.4006881358       -1.3122903237
 H          1.4137307894       -3.1294601971       -0.3931093246
 H          0.9623471878       -2.0167197081       -1.7038425263
