  26
        -36.72298538
 C          3.8712140415        0.4061540830       -0.5178832412
 C          2.8166795620        0.9056785913        0.1134669074
 C          1.4518674443        0.3897674949        0.0947841098
 C          0.4036085643        1.3120108121        0.1814833300
 C         -0.9246670432        0.9255320059        0.1426907491
 C         -2.0146304536        1.8851718372        0.2555891356
 C         -1.9643758669        3.1450395237       -0.1589395722
 C         -1.1563547242       -0.4657451203        0.0172452591
 N         -2.4078005702       -0.9811648334       -0.1495582177
 N         -2.6337530501       -2.3687009420       -0.0500143234
 N         -0.1674866032       -1.3535581308        0.0116432661
 C          1.0994985351       -0.9651968138        0.0484749909
 C          2.0905899598       -2.0863112574        0.0926835542
 H          4.8348186639        0.8834225297       -0.4538437603
 H          3.8172806916       -0.4684877937       -1.1407795907
 H          2.9329293466        1.8253460277        0.6767029152
 H          0.6410612951        2.3606511163        0.2937291316
 H         -2.9234659017        1.5221975447        0.7222026838
 H         -1.0983304485        3.5498145136       -0.6544104339
 H         -2.7971615490        3.8148556578       -0.0311424680
 H         -3.2038357222       -0.4241836754        0.1252193093
 H         -1.9075952701       -2.7681634767        0.5468646653
 H         -2.5069676763       -2.7842410511       -0.9735378326
 H          1.6129733661       -2.9643817470        0.5207901081
 H          2.9622118044       -1.8129622308        0.6818394871
 H          2.4162140921       -2.3426970285       -0.9147248409
