  30
        -41.32213947
 C         -0.0723653594       -1.7784526527       -2.0447939051
 C         -1.1415452648       -0.9952536372       -2.0081031456
 C         -1.6003527076       -0.2113583951       -0.8611796761
 C         -2.9755951424       -0.0493704283       -0.6886232180
 C         -3.4902655548        0.6243196419        0.4009472693
 C         -2.6298289122        1.1669035910        1.3414714781
 C         -1.2645349596        1.0369169015        1.1744303721
 C         -0.7337672866        0.3535346714        0.0848660205
 C          0.7337747124        0.3538761053       -0.0847226676
 C          1.2645885896        1.0390672296       -1.1731091793
 C          2.6298867998        1.1701081905       -1.3393879440
 C          3.4902492536        0.6267950494       -0.3992214768
 C          2.9755259606       -0.0489451626        0.6890516693
 C          1.6003119736       -0.2121121473        0.8607487548
 C          1.1416299875       -0.9983144455        2.0061061465
 C          0.0722719770       -1.7813465804        2.0416830078
 H          0.1732507431       -2.3480613716       -2.9252807297
 H          0.5912035476       -1.8924420493       -1.2051071675
 H         -1.7963455798       -0.9530570267       -2.8711012531
 H         -3.6468122898       -0.4774368358       -1.4203176676
 H         -4.5590752217        0.7293630922        0.5161600051
 H         -3.0217375916        1.6993277280        2.1954130895
 H         -0.5869489507        1.4763806481        1.8925110157
 H          0.5870545084        1.4792468548       -1.8908054301
 H          3.0218428346        1.7040778150       -2.1923462630
 H          4.5590380194        0.7328849264       -0.5136729739
 H          3.6467059921       -0.4776737814        1.4203949610
 H          1.7967244527       -0.9580813583        2.8689639976
 H         -0.5917400823       -1.8935639348        1.2021215428
 H         -0.1729705075       -2.3527389151        2.9211183961
