26
 energy: -36.026638777633 gnorm: 0.000041751716 xtb: 6.4.1 (23d549d)
C         3.77754649550000    1.51887308600000    0.27785930750000
C         2.89536092890000    0.73866193540000   -0.33187499600000
C         1.45481054120000    0.76638619900000   -0.08242269730000
C         0.81980482770000    1.96782444360000    0.14437240390000
C        -0.56314327430000    2.03906821480000    0.30063818720000
C        -1.35541681660000    0.91465053340000    0.21917270600000
C        -2.80797958510000    1.09290032720000    0.26514803790000
C        -3.67654567020000    0.52920950420000   -0.56282285170000
C        -0.73160575910000   -0.35692078930000    0.07484865940000
C        -1.46392961100000   -1.56075199470000    0.15159538400000
C        -0.85055869660000   -2.77586957700000    0.02888879370000
C         0.53466166250000   -2.84675220700000   -0.16379420310000
C         1.27988633170000   -1.70178446440000   -0.20423543700000
C         0.68052024990000   -0.42929666390000   -0.08716131320000
H         4.82761550570000    1.47821838780000    0.04323863270000
H         3.48778985380000    2.21389356130000    1.04836701660000
H         3.23667865510000    0.03502477210000   -1.08018959110000
H         1.39787456520000    2.88005432630000    0.15948262760000
H        -1.02749341070000    3.00533568160000    0.44133717340000
H        -3.15832431250000    1.80797839970000    1.00061333650000
H        -3.36572009420000   -0.14071766810000   -1.34729835260000
H        -4.73166356920000    0.73716969590000   -0.50123988140000
H        -2.52531572300000   -1.51183641580000    0.33991253690000
H        -1.42817698110000   -3.68640133120000    0.09516860020000
H         1.01298383890000   -3.81110039800000   -0.25555957550000
H         2.35226440030000   -1.77063196250000   -0.30386437840000
