  23
        -43.26310640
 C         -4.8172216703        1.9493950575        0.0857856418
 C         -4.5080856989        0.6646879641       -0.0402539577
 C         -3.1690269706        0.0839168846       -0.0272891524
 C         -3.0585843746       -1.3206540553       -0.0083305902
 C         -1.8446157754       -1.9715552695        0.0110550102
 C         -0.7054213067       -1.1820973821        0.0064815223
 O          0.5834896659       -1.5849198752        0.0201292393
 C          1.3473695669       -0.4524526291        0.0037178196
 C          2.7723639807       -0.6455380795        0.0158974346
 C          3.6819098322        0.3206600357        0.0039792156
 F          3.4445164041        1.6259860775       -0.0214986220
 F          4.9919680053        0.1063977764        0.0162964921
 C          0.5723222483        0.6737191685       -0.0211915019
 C         -0.7798616528        0.2273347571       -0.0192503159
 C         -2.0186852069        0.8602088577       -0.0364955743
 H         -5.8408036384        2.2818270410        0.0668627623
 H         -4.0760036613        2.7186592974        0.2174490575
 H         -5.3087419326       -0.0557696271       -0.1549388380
 H         -3.9655807858       -1.9074302175       -0.0051132853
 H         -1.7760700433       -3.0473701440        0.0275554225
 H          3.1218758259       -1.6657175130        0.0368917077
 H          0.9178668622        1.6864077841       -0.0377990123
 H         -2.0694100954        1.9364695261       -0.0638013423
