22
 energy: -34.100282403608 gnorm: 0.000048741521 xtb: 6.4.1 (23d549d)
C         3.65930999090000   -0.53384429960000   -0.26526617530000
C         2.69357543250000    0.19809886820000    0.27299784920000
C         1.26233575940000   -0.05953791070000    0.11232714960000
C         0.80984574880000   -1.37388926280000    0.04071312850000
C        -0.54011554630000   -1.62819059560000   -0.06891788890000
F        -0.96705566940000   -2.91399427870000   -0.12653077640000
C        -1.46911204730000   -0.60990240030000   -0.12304233100000
C        -1.04416433240000    0.71224702010000   -0.06994403340000
C        -2.02130228260000    1.79601742570000   -0.18398501460000
C        -3.25862708010000    1.75350071380000    0.29155954590000
C         0.33125084610000    0.99670871460000    0.05897771690000
N         0.75805279020000    2.30773471770000    0.06054362650000
H         4.69884444850000   -0.31422101830000   -0.09239736790000
H         3.44841374260000   -1.36879384260000   -0.91130627160000
H         2.96593742460000    1.04317256410000    0.89612694310000
H         1.50659871350000   -2.19425388770000    0.09784941180000
H        -2.51531980440000   -0.84419345310000   -0.23365898500000
H        -1.68671839760000    2.67771138790000   -0.71686942420000
H        -3.62978702480000    0.90651723970000    0.84352223220000
H        -3.94468200920000    2.57209692960000    0.15650161090000
H         0.09979347660000    2.99619250640000    0.38347319610000
H         1.71004135030000    2.47221314720000    0.34082940180000
