  24
        -37.89836341
 C         -3.9438100948       -0.0555411136        0.0148951318
 C         -2.8439009086        0.6901164891        0.0243025659
 C         -1.4595721336        0.2398286777        0.0086525830
 C         -0.4504499481        1.2098381225        0.0013466834
 C          0.8962171583        0.8892563734       -0.0153209998
 O          1.8955752896        1.8152983818       -0.0213103925
 C          1.5605054622        3.1808355255       -0.0236664749
 C          1.2977395379       -0.4658230067       -0.0214828795
 C          2.7152787854       -0.7922349555       -0.0422837830
 C          3.2485541772       -2.0021139103        0.0879559767
 C          0.2997012121       -1.4336916446       -0.0159299133
 C         -1.0346489686       -1.0886899923       -0.0011147132
 F         -1.9271798901       -2.1066427343        0.0019798233
 H         -4.9174810105        0.4049619099        0.0281096121
 H         -3.9297146832       -1.1295109226       -0.0062792808
 H         -2.9484939590        1.7688984326        0.0445198336
 H         -0.7591861147        2.2436830451        0.0081993076
 H          0.9829939980        3.4533982532       -0.9129374590
 H          2.5099736567        3.7141271992       -0.0357883074
 H          1.0021424920        3.4608995893        0.8753883899
 H          3.3637638745        0.0631538273       -0.1682403283
 H          2.6593392511       -2.8911262291        0.2333343327
 H          4.3148978783       -2.1450374400        0.0587392666
 H          0.5541428552       -2.4808025376       -0.0308901955
