  21
        -38.95773462
 C          3.7385633882        1.2104555335       -0.0092186433
 C          2.4840771426        1.6460002304       -0.0102744927
 C          1.2661298869        0.8462376372       -0.0053233492
 C          0.0425646501        1.5110332661        0.0044042096
 C         -1.2044734713        0.8870721875        0.0103768937
 C         -2.4030849448        1.7161777318        0.0206379166
 C         -3.6701797803        1.3180377536        0.0148423830
 C         -1.1965934228       -0.5099048054        0.0063512798
 F         -2.3288658959       -1.2333749036        0.0127158670
 C          0.0043266399       -1.1952744616       -0.0036873277
 F          0.0091721852       -2.5554746048       -0.0079689066
 C          1.2447517935       -0.5600689531       -0.0097980359
 O          2.3722731551       -1.3032035154       -0.0200782449
 H          4.5605935942        1.9064209178       -0.0125715392
 H          3.9905283445        0.1668299285       -0.0047292587
 H          2.2998785423        2.7134559618       -0.0142111922
 H          0.0600157732        2.5912303929        0.0075661036
 H         -2.1893800199        2.7779461397        0.0332441976
 H         -3.9684665623        0.2859446286        0.0015034638
 H         -4.4692106799        2.0398957809        0.0233534403
 H          2.1360949732       -2.2428191376       -0.0231186116
