  48
        -55.80603886
 C          3.3171979221        3.1397306678        0.9395928665
 C          3.4986747623        1.8696928473        0.5930608245
 C          2.4496432022        0.9293712156        0.2711266213
 C          1.0953422839        1.1428065566        0.3137634909
 N          0.4225003666        0.0144539419       -0.0621160270
 Si        -1.3477945850       -0.1340026178       -0.0728010587
 C         -1.9298617469        0.0207692701        1.7625461744
 C         -0.9488655735       -0.6548808060        2.7235698943
 C         -2.1220260210        1.4709632388        2.2105391267
 C         -1.9068420684        1.3626164798       -1.1483154809
 C         -1.2854080561        1.3024603852       -2.5443456574
 C         -3.4194480796        1.5489448694       -1.2595943646
 C         -1.7439970455       -1.8540208289       -0.8405079242
 C         -1.5180882218       -3.0074103455        0.1381343853
 C         -3.1706111015       -1.9442557369       -1.3800131366
 C          1.3603775441       -0.9357263460       -0.3478517635
 C          2.6228472484       -0.4320211053       -0.1600284228
 C          3.8799749171       -1.1175343061       -0.3551983854
 C          4.0183171260       -2.3962952161       -0.6892815732
 H          4.1475022527        3.7859789619        1.1672187900
 H          2.3377284040        3.5812490951        1.0071656320
 H          4.5076223224        1.4820876497        0.5388581355
 H          0.5566580927        2.0280438640        0.5830015311
 H         -2.8973787998       -0.4828042555        1.8641253833
 H          0.0285338767       -0.1819467323        2.6606319789
 H         -0.8292247079       -1.7099122767        2.4996733709
 H         -1.3043218682       -0.5636063825        3.7489721812
 H         -1.1762402281        2.0060120187        2.1823064169
 H         -2.4894707763        1.4999628752        3.2354858319
 H         -2.8341709237        1.9971451900        1.5819361458
 H         -1.5118902124        2.2611086202       -0.6620768287
 H         -1.6432992727        0.4328653295       -3.0905623994
 H         -0.2015908413        1.2444795654       -2.4819491101
 H         -1.5475881592        2.1917917946       -3.1154852490
 H         -3.8643538730        0.7715814066       -1.8728316879
 H         -3.6466097590        2.5083614396       -1.7226173913
 H         -3.8977104770        1.5209114557       -0.2842667338
 H         -1.0691414237       -2.0031278552       -1.6900070450
 H         -2.2295723508       -2.9534259552        0.9586706088
 H         -0.5130782755       -2.9921748216        0.5510765330
 H         -1.6617657731       -3.9621551624       -0.3670406085
 H         -3.8955651469       -1.7013939758       -0.6067828074
 H         -3.3763872512       -2.9550503625       -1.7302532708
 H         -3.3161940467       -1.2674226260       -2.2162473917
 H          1.0655536061       -1.9076997974       -0.6834502712
 H          4.7683489349       -0.5172037681       -0.2080914923
 H          3.1719425266       -3.0429820762       -0.8448080151
 H          4.9892446002       -2.8430205767       -0.8182734118
