22
 energy: -36.989314644011 gnorm: 0.000066335829 xtb: 6.4.1 (23d549d)
C         3.83884074110000    1.36686162840000    0.18105016490000
C         3.30491140450000    0.15440968230000    0.09408964330000
C         1.88525771550000   -0.16871913140000    0.04868599590000
C         0.86319800660000    0.77268789740000    0.18402944540000
C        -0.46275460280000    0.36638178730000    0.09510179790000
C        -1.55071556840000    1.38953589360000    0.18516845760000
O        -2.53161999830000    1.39054587550000   -0.50282864410000
O        -1.35496881350000    2.35134026510000    1.10838187920000
C        -0.75208216300000   -0.99086277350000   -0.12993268550000
C        -2.11432581270000   -1.49039838190000   -0.23404254280000
C        -2.45997688480000   -2.59170373450000   -0.89065159050000
C         0.35429243860000   -1.84928086410000   -0.19815853320000
N         1.60450890240000   -1.46338804230000   -0.11901878870000
H         4.90592567810000    1.50432984660000    0.20347068210000
H         3.25054027950000    2.26814132420000    0.22560899690000
H         3.93926624170000   -0.71933935100000    0.03814510390000
H         1.10856784980000    1.81676869190000    0.31663172540000
H        -0.54185465460000    2.21995008380000    1.61499984500000
H        -2.87806674990000   -0.88790152450000    0.23687782070000
H        -1.74597277860000   -3.19578503910000   -1.42492309510000
H        -3.48570370510000   -2.91311757020000   -0.93714950470000
H         0.20719247190000   -2.91494139370000   -0.31156071170000
