  26
        -41.23616491
 C         -4.5813024933       -0.4804236509       -0.1992573913
 C         -3.6351349197        0.3470826307        0.2247163750
 C         -2.1988416497        0.1095652384        0.1015736745
 C         -1.6923517730       -1.1876242670        0.1435916831
 C         -0.3416905525       -1.4665120441        0.0394136627
 C          0.1306217939       -2.8884043164        0.1100996086
 C          0.5548893787       -0.3965591449       -0.1105131099
 C          1.9815666032       -0.6604314863       -0.2351680974
 C          2.9816145412        0.1807092539       -0.0219006645
 F          2.9218630885        1.4471264846        0.3767282373
 F          4.2634435075       -0.1600338718       -0.1725418045
 C          0.0498879032        0.9030333863       -0.1538707869
 C         -1.3016599645        1.1769249039       -0.0479103394
 C         -1.7823256964        2.5951452838       -0.1197068872
 H         -5.6264466733       -0.2532294029       -0.0757768845
 H         -4.3530693358       -1.4047889773       -0.7030175610
 H         -3.9202667252        1.2809965793        0.6905349702
 H         -2.3830856095       -2.0060527462        0.2846964675
 H         -0.7067564176       -3.5546636422        0.3009492344
 H          0.8601985624       -3.0170000373        0.9081724494
 H          0.5951161204       -3.1894781044       -0.8289418247
 H          2.2819925715       -1.6550053486       -0.5269147514
 H          0.7309416170        1.7284995698       -0.2886526653
 H         -0.9549072230        3.2670214788       -0.3326565006
 H         -2.2302804138        2.8967625105        0.8271917145
 H         -2.5337627838        2.7088755078       -0.8995671838
