  24
        -37.21566904
 C          5.1796162199        0.8795304207       -0.0361041662
 C          4.5694376310       -0.3028196581       -0.0128997760
 C          3.1476044916       -0.4978540029        0.0015178367
 C          2.4755708762       -1.6959308671        0.0162578664
 C          1.0833256391       -1.5604659233        0.0233341483
 C          0.6661659008       -0.2505591027        0.0152312519
 C         -0.6661658966        0.2505555072        0.0152188275
 C         -1.0833244592        1.5604616104        0.0235543426
 C         -2.4755688345        1.6959294076        0.0162899938
 C         -3.1476012789        0.4978557735        0.0012680840
 C         -4.5694333557        0.3028298764       -0.0132860587
 C         -5.1796278326       -0.8795341061       -0.0353749204
 S         -2.0272523128       -0.8344145274       -0.0016962259
 S          2.0272530125        0.8344148860       -0.0013292945
 H          6.2516465666        0.9631270911       -0.0472878106
 H          4.6186022632        1.7995562989       -0.0448862452
 H          5.1483750462       -1.2179721562       -0.0050951808
 H          2.9809869115       -2.6457138211        0.0209326625
 H          0.3941339567       -2.3865031954        0.0342217417
 H         -0.3941342653        2.3864960187        0.0347258270
 H         -2.9809843247        2.6457120095        0.0210825931
 H         -5.1483572071        1.2179982600       -0.0065127344
 H         -4.6186237721       -1.7995750107       -0.0430973157
 H         -6.2516567211       -0.9631242169       -0.0466870283
  24
        -37.21443216
 C          5.1366533211        1.1097027761       -0.0064040820
 C          4.6098962683       -0.1122862895        0.0013697851
 C          3.2049388042       -0.4054622770        0.0021850122
 C          2.6173225040       -1.6471640584        0.0088274718
 C          1.2190065244       -1.6083296128        0.0081344041
 C          0.7123960949       -0.3303298869        0.0009647237
 C         -0.6511765014        0.0777789577       -0.0012330679
 C         -1.1584495676        1.3565002592       -0.0091538369
 C         -2.5558109250        1.4009526825       -0.0086005749
 C         -3.1461125365        0.1600253686       -0.0003715834
 C         -4.5359356002       -0.2056677139        0.0027718309
 C         -5.5562002508        0.6498297483       -0.0017770426
 S         -1.9370910188       -1.0925313891        0.0068588078
 S          1.9951892542        0.8462297829       -0.0052531833
 H          6.2003415744        1.2675810264       -0.0065076433
 H          4.5131889254        1.9886436344       -0.0128707090
 H          5.2508642599       -0.9851260094        0.0077374270
 H          3.1871083582       -2.5597745405        0.0140982986
 H          0.5887185200       -2.4802840489        0.0127780583
 H         -0.5258184048        2.2268232593       -0.0150831777
 H         -3.1161426830        2.3181027294       -0.0141406120
 H         -4.7278520045       -1.2708990480        0.0094957019
 H         -5.4108545336        1.7160059398       -0.0083710091
 H         -6.5745246068        0.3039087008        0.0009610505
  24
        -37.21218673
 C          4.8362920094        1.3427515714       -0.1138035946
 C          4.5041569714        0.0573995528       -0.0223594020
 C          3.1606256621       -0.4460249096        0.0172052037
 C          2.7700816395       -1.7606443000        0.1048085890
 C          1.3828996012       -1.9366757029        0.1205230444
 C          0.6851552805       -0.7521478593        0.0453349461
 C         -0.7282226908       -0.5663001742        0.0359828051
 C         -1.7105027297       -1.5314119019        0.0804631483
 C         -3.0059955944       -1.0077201558        0.0542102103
 C         -3.0445816058        0.3649246786       -0.0101995459
 C         -4.1686209977        1.2594230970       -0.0530400340
 C         -5.4475686863        0.8894296180       -0.0398163129
 S         -1.4334074491        1.0190785243       -0.0393117875
 S          1.7734875539        0.6007772496       -0.0461983835
 H          5.8629591233        1.6616166795       -0.1401608137
 H          4.0849202867        2.1135393896       -0.1651477166
 H          5.2718472522       -0.7047871745        0.0278941560
 H          3.4728430482       -2.5738676772        0.1559020222
 H          0.9052854405       -2.8973523590        0.1856769784
 H         -1.4960039003       -2.5836401768        0.1290769628
 H         -3.8889702610       -1.6201311026        0.0815967744
 H         -3.9138655825        2.3103913646       -0.0993649606
 H         -5.7455111271       -0.1435900427        0.0052066802
 H         -6.2393514667        1.6164486203       -0.0741863903
  24
        -37.21091888
 C          5.5725716121       -0.3233624552       -0.2844330691
 C          4.3545701478       -0.2576146985       -0.8182024803
 C          3.1256421085       -0.1837898369       -0.0767914286
 C          2.9085791394       -0.1668176474        1.2804962775
 C          1.5581080864       -0.0868523907        1.6314042580
 C          0.7116059361       -0.0407992894        0.5453226854
 C         -0.7114517740        0.0429187749        0.5453498965
 C         -1.5574403340        0.0968635646        1.6314820350
 C         -2.9080268755        0.1752633245        1.2806378285
 C         -3.1256787956        0.1831198914       -0.0766439930
 C         -4.3548308894        0.2530619128       -0.8180417546
 C         -5.5725100530        0.3248607491       -0.2844942244
 S         -1.6166191357        0.0913897591       -0.9362218981
 S          1.6161410346       -0.0985156001       -0.9362594409
 H          6.4508869179       -0.3763977295       -0.9028753127
 H          5.7332318278       -0.3262473111        0.7795936479
 H          4.2389606533       -0.2568836588       -1.8944437583
 H          3.7027931925       -0.2111875533        2.0034477866
 H          1.2087408779       -0.0632303016        2.6477053775
 H         -1.2076219642        0.0799706635        2.6477840889
 H         -3.7019342535        0.2248515401        2.0036201608
 H         -4.2396684215        0.2441851398       -1.8942121769
 H         -5.7328726634        0.3363030313        0.7795024769
 H         -6.4508734514        0.3744783315       -0.9031291285
