  29
        -41.17828936
 C         -4.1556794157       -1.6550863918       -0.6065187109
 C         -2.9874588801       -0.7857784582       -0.2512897558
 C         -3.1425031630        0.5799493237       -0.0682071893
 C         -2.0683827572        1.3865787275        0.2884643400
 C         -2.2656279922        2.8601159781        0.4814231637
 C         -0.8180206318        0.8136661696        0.4546361488
 C         -0.6458802788       -0.5519783641        0.2573473560
 O          0.5538544441       -1.1854850824        0.4697145096
 C          1.7295068887       -0.5632240571        0.1494591405
 C          2.8505187690       -0.9067922507        0.8999157873
 C          4.0821135895       -0.3631115885        0.5900462103
 C          4.2090935802        0.5257471279       -0.4646559681
 C          3.0960479687        0.8572564678       -1.2180661038
 C          1.8587799536        0.3160340855       -0.9209791370
 C         -1.7291182466       -1.3479547452       -0.0875962934
 H         -4.9859925163       -1.0596142700       -0.9776375102
 H         -4.4935698255       -2.2016430672        0.2740992259
 H         -3.8767408915       -2.3842118319       -1.3642775686
 H         -4.1170939388        1.0283963798       -0.1987646891
 H         -3.1232454467        3.0501284104        1.1242256967
 H         -2.4558161481        3.3415403109       -0.4779143746
 H         -1.3852419939        3.3168083351        0.9261800191
 H          0.0255579029        1.4228982550        0.7464791692
 H          2.7347418563       -1.6018064787        1.7170231339
 H          4.9467910260       -0.6322340613        1.1784401922
 H          5.1713773551        0.9536083198       -0.7017761129
 H          3.1891397399        1.5395743306       -2.0502542546
 H          0.9943345400        0.5644753446       -1.5195433813
 H         -1.5756839547       -2.4077026032       -0.2215141434
