  18
        -26.97727760
 C         -3.7222737198        0.5339146367        0.0011140317
 C         -2.7753734627       -0.3970985343       -0.0014050938
 C         -1.3409032033       -0.1598190495       -0.0002332139
 C         -0.7344429726        1.1033004331        0.0006910154
 N          0.5719097087        1.2556720411        0.0004897487
 C          1.3409107833        0.1598392087       -0.0000237468
 C          2.7753930648        0.3970783864       -0.0009049606
 C          3.7222446516       -0.5339875105        0.0005589108
 C          0.7344485705       -1.1032545877        0.0000023206
 N         -0.5719105996       -1.2556325701       -0.0003836971
 H         -4.7652896714        0.2677599668       -0.0002906329
 H         -3.5032469792        1.5881942257        0.0046883906
 H         -3.0356462603       -1.4471657145       -0.0046324711
 H         -1.3119900772        2.0173878791        0.0013013197
 H          3.0357283063        1.4470972788       -0.0029747195
 H          3.5031552633       -1.5882345119        0.0029002111
 H          4.7652721493       -0.2679145068       -0.0002820408
 H          1.3119854175       -2.0173511840        0.0002083030
