  23
        -38.06262702
 C         -4.4074917602        0.3595772528        0.6452437535
 C         -3.3546165886        0.7410815545       -0.0625561410
 C         -2.0856503776        0.0063690731       -0.1153945950
 C         -2.1093959003       -1.3856415714       -0.1728647221
 C         -0.9374057387       -2.1102029424       -0.2658913961
 C          0.2752775029       -1.4515850842       -0.3197791628
 C          0.3255238239       -0.0599458157       -0.2599908240
 C          1.6076408691        0.6365399972       -0.3634914147
 C          2.7756938698        0.1897836935        0.0657907229
 F          3.0211220285       -0.9432126393        0.7141270686
 F          3.9191471072        0.8603933071       -0.0808705925
 C         -0.8589849133        0.6791553690       -0.1382731861
 C         -0.8057308526        2.1726194125        0.0141320355
 H         -5.3282112284        0.9177511273        0.6389229789
 H         -4.3839573734       -0.5150522977        1.2740010120
 H         -3.4098454966        1.6390976790       -0.6643216859
 H         -3.0612166515       -1.8949640624       -0.1652879210
 H         -0.9680043135       -3.1882776318       -0.3128725152
 H          1.1871877686       -2.0171920485       -0.4261676251
 H          1.6230393634        1.6032421979       -0.8431387019
 H          0.0489100122        2.4675950419        0.6184060527
 H         -1.7036157886        2.5423869013        0.5006849294
 H         -0.7192399773        2.6550254285       -0.9607929032
  23
        -38.06179491
 C         -4.1861739344        0.7483229550        0.1525354188
 C         -2.9279456176        0.9068681044       -0.2320040093
 C         -1.8824315102       -0.1099173744       -0.0853882298
 C         -2.1963735835       -1.4511242870       -0.2824724738
 C         -1.2272367543       -2.4293488602       -0.1634337682
 C          0.0725146944       -2.0687732573        0.1264615610
 C          0.4167898865       -0.7277599433        0.2979234345
 C          1.8325166597       -0.4419529029        0.5587895539
 C          2.5663997706        0.4683348615       -0.0551416445
 F          2.1714277533        1.3078349077       -1.0053342372
 F          3.8627034269        0.6654064119        0.1873361347
 C         -0.5663724725        0.2628256178        0.2266613343
 C         -0.2606636306        1.6959102622        0.5443915708
 H         -4.9242472841        1.5187255311        0.0075214705
 H         -4.5242911815       -0.1489043300        0.6441326066
 H         -2.6223867935        1.8353927904       -0.6959762983
 H         -3.2086749642       -1.7223211502       -0.5412110050
 H         -1.4827663730       -3.4686650693       -0.3053707612
 H          0.8413993342       -2.8233685795        0.2040257037
 H          2.3471671720       -1.0793729990        1.2628633013
 H         -0.1059349733        2.2690363400       -0.3699317935
 H          0.6383509495        1.7786024996        1.1503002645
 H         -1.0861793042        2.1440427078        1.0931064044
  23
        -38.06172748
 C         -4.4834639933        0.3868433514       -0.1153307716
 C         -3.3039697275        0.7141569615        0.3927190411
 C         -2.0586569491       -0.0087850618        0.1213891336
 C         -2.0858608896       -1.3953825997       -0.0020839918
 C         -0.9261227537       -2.1063073642       -0.2415790564
 C          0.2730682196       -1.4354909594       -0.3712046734
 C          0.3260409269       -0.0461573355       -0.2581909103
 C          1.6131611720        0.6293227465       -0.4527522450
 C          2.7747862129        0.1899691330       -0.0022044435
 F          2.9894843989       -0.8859222499        0.7467560661
 F          3.9372249894        0.8039707501       -0.2254756851
 C         -0.8421834800        0.6789312440        0.0014436219
 C         -0.8275205831        2.1705644248        0.1690994173
 H         -5.3753104129        0.9415870999        0.1215597362
 H         -4.6021065746       -0.4345787253       -0.8022662088
 H         -3.2288170720        1.5682389529        1.0523630163
 H         -3.0243798672       -1.9157212678        0.1143225851
 H         -0.9557488742       -3.1818155229       -0.3293998617
 H          1.1772779275       -1.9866579911       -0.5773333041
 H          1.6421850511        1.5416607717       -1.0287175782
 H          0.1600589193        2.5904683623        0.0131522849
 H         -1.1403422480        2.4338540172        1.1796354362
 H         -1.5223332329        2.6372480398       -0.5279266910
  23
        -38.06169373
 C         -3.9466978469        1.3240353300        0.5068583598
 C         -3.4508375953        0.3899732687       -0.2906806073
 C         -2.1175215553       -0.2136988079       -0.1718889453
 C         -2.0502988353       -1.6055225997       -0.2404663051
 C         -0.8501223664       -2.2688034563       -0.0868290010
 C          0.3076307888       -1.5464472903        0.1287544687
 C          0.2717959097       -0.1547896810        0.1674138379
 C          1.4964742803        0.6060532262        0.4133424555
 C          2.7180546666        0.2584835939        0.0455305721
 F          3.0808769180       -0.8114368851       -0.6531990370
 F          3.8032450329        0.9837730795        0.3195491426
 C         -0.9447982771        0.5267804574        0.0058781241
 C         -0.9491036514        2.0265886630       -0.0475626268
 H         -4.9522704288        1.6912276923        0.3884309384
 H         -3.3804281960        1.7399664252        1.3228142575
 H         -4.0755676760       -0.0384877305       -1.0654171924
 H         -2.9607611028       -2.1655283474       -0.3986606187
 H         -0.8148293445       -3.3468288966       -0.1295129773
 H          1.2421937128       -2.0641665146        0.2748061827
 H          1.4163322947        1.5387159207        0.9503146582
 H         -0.1188416135        2.3851623842       -0.6532857631
 H         -0.8484812760        2.4519827229        0.9514419189
 H         -1.8755763669        2.3930207499       -0.4802246783
  23
        -38.06072388
 C         -4.0094484904        0.8337596067       -0.6697383792
 C         -2.9813461517        0.8521125432        0.1663339923
 C         -1.8985429677       -0.1347331771        0.1591228051
 C         -2.2037995703       -1.4675400081       -0.1056243396
 C         -1.2177139912       -2.4347026927       -0.1157256474
 C          0.0936186603       -2.0698953271        0.1104323559
 C          0.4280832227       -0.7371970158        0.3470678175
 C          1.8583011438       -0.4458257459        0.5162301098
 C          2.5380020640        0.4808491471       -0.1338365451
 F          2.0632766901        1.3374093919       -1.0309076936
 F          3.8477606492        0.6841981614        0.0120559990
 C         -0.5696250040        0.2404105333        0.4128885131
 C         -0.2392432772        1.6619021116        0.7539308149
 H         -4.7887228203        1.5752051687       -0.6239747654
 H         -4.1025530497        0.0923908802       -1.4457920757
 H         -2.9163754704        1.6404863984        0.9039189750
 H         -3.2325381080       -1.7456448270       -0.2773730776
 H         -1.4695781065       -3.4679052008       -0.3017546832
 H          0.8769427692       -2.8131950425        0.0876911367
 H          2.4261248310       -1.0946829535        1.1668515645
 H          0.7460359083        1.7394057931        1.2055772505
 H         -0.9631420201        2.0672520417        1.4575453816
 H         -0.2575716378        2.2829461191       -0.1410177451
