24
 energy: -33.664678748022 gnorm: 0.000191172669 xtb: 6.4.1 (23d549d)
C         1.58678588760000    3.28673524820000    0.06655574830000
C         0.40086841970000    2.70002695710000   -0.03905756480000
C         0.12844933540000    1.26754813390000    0.01238684020000
C        -1.19456998920000    0.83527402040000   -0.01446507080000
C        -1.52250717500000   -0.51723729920000    0.04071077820000
C        -2.89866432220000   -1.00156050030000    0.01688907330000
C        -3.99354352110000   -0.27773204270000   -0.18004920480000
C        -0.48623883340000   -1.44727319660000    0.11913231700000
C         0.83899223600000   -1.03952456160000    0.14004113840000
C         1.94848073290000   -2.06061238650000    0.22728339640000
O         3.16393180930000   -1.63364796250000   -0.33946675140000
C         1.14115972230000    0.31107718120000    0.08900938970000
H         1.68652594580000    4.35763002360000    0.01827086140000
H         2.50077390850000    2.73620154100000    0.20839822340000
H        -0.47898891130000    3.31875823860000   -0.17041750500000
H        -1.98070584130000    1.57309819440000   -0.06882585680000
H        -2.99883976340000   -2.06953028350000    0.17026455600000
H        -3.96925089760000    0.78502323960000   -0.34947848900000
H        -4.97024023800000   -0.73051595360000   -0.18215172840000
H        -0.71868614730000   -2.50265041400000    0.16043684850000
H         1.61807293060000   -3.00442391670000   -0.23287892180000
H         2.17686558100000   -2.26242521640000    1.27967492260000
H         3.00539563560000   -1.38871420310000   -1.25808948060000
H         2.17749347200000    0.61041274960000    0.11202689580000
