47
 energy: -56.030430371990 gnorm: 0.000041072054 xtb: 6.4.1 (23d549d)
C         4.04495670720000   -3.67507009270000    3.51631945510000
C         4.57734901400000   -2.79219889680000    2.67434929160000
C         3.84224127570000   -1.80792840090000    1.92714846560000
C         2.49574839740000   -1.54865924030000    1.89012925220000
C         2.13663065570000   -0.49026462740000    1.03709147160000
C         0.71625443200000   -0.07238433480000    0.81704311520000
C         0.14969543190000   -0.72806570300000   -0.44865529080000
C        -1.32831629980000   -0.41268118320000   -0.67477087240000
C        -1.58747010230000    1.06173763490000   -0.98101784510000
C        -3.01332819500000    1.32859541990000   -1.46451924440000
C        -4.06995510290000    1.04024516240000   -0.39910406240000
C        -5.45908164740000    1.55232981880000   -0.78129769270000
C        -6.04753246630000    0.83464082380000   -1.99490560480000
C        -7.51947235440000    1.17170514280000   -2.23548122610000
C        -7.74316019140000    2.62616920030000   -2.63299811180000
C         3.22505234870000    0.06925317260000    0.39934830370000
C         3.23375799210000    1.15678199650000   -0.53862228100000
C         4.31452654210000    1.61564731010000   -1.16498051160000
S         4.69916018660000   -0.72260324710000    0.87560709040000
H         4.65789489660000   -4.38447418630000    4.04344410770000
H         2.98683826340000   -3.71947536500000    3.70721763910000
H         5.64752622520000   -2.78181217960000    2.51219188430000
H         1.77533162830000   -2.10227691020000    2.46563860410000
H         0.65545911020000    1.01312958110000    0.73077576930000
H         0.11682975400000   -0.37833377310000    1.67698668650000
H         0.27274703770000   -1.81065570350000   -0.36182346290000
H         0.73116913290000   -0.40059829740000   -1.31374779700000
H        -1.89528391160000   -0.71077299990000    0.20891608180000
H        -1.68389304450000   -1.01230932840000   -1.51648257160000
H        -0.89030344700000    1.38622396520000   -1.75828905630000
H        -1.39845091570000    1.66434591800000   -0.09035293070000
H        -3.20747269320000    0.72048394160000   -2.34978459150000
H        -3.08981716990000    2.37861049540000   -1.75867622480000
H        -3.76669097850000    1.52134078890000    0.53460779840000
H        -4.12535015840000   -0.03454548750000   -0.21670055270000
H        -5.39907880200000    2.62392309940000   -0.97954203150000
H        -6.12985837070000    1.40829732430000    0.06986789490000
H        -5.95746064100000   -0.24394124900000   -1.84138564580000
H        -5.47601033190000    1.09244596680000   -2.88825434820000
H        -8.09309514920000    0.95078753150000   -1.33215081910000
H        -7.89831122490000    0.52658060110000   -3.03214955940000
H        -7.47047452330000    3.29802648180000   -1.82347210630000
H        -8.79023459460000    2.79516272230000   -2.87461609960000
H        -7.14526106140000    2.87762785790000   -3.50655977720000
H         2.26937276540000    1.61037112320000   -0.72616633950000
H         5.28629568280000    1.17942548660000   -1.00223156680000
H         4.26078155960000    2.43656308700000   -1.85782304980000
