  40
        -61.74019124
 C          1.2513343807       -4.2754260821        1.8096565618
 O          2.2206384448       -3.8191357297        0.8973590214
 C          2.0520531606       -2.5972553476        0.3238049173
 C          0.9840066350       -1.7476221639        0.5791657778
 C          0.8848893092       -0.5261898443       -0.0834317313
 N         -0.1981680441        0.3380311785        0.1632514624
 C          0.1790088141        1.6572988274        0.4807258862
 C          1.1114106943        2.3215984027       -0.3154722684
 S          1.8264259530        1.4730396412       -1.6991261896
 C          1.4918417002        3.6222930600       -0.0270689516
 C          0.9534036469        4.2687149923        1.0703374703
 C          0.0675731839        3.5996146376        1.8995228755
 C         -0.3062912824        2.2984778093        1.6166859525
 C         -1.5232983417       -0.0453144673       -0.0210834392
 C         -1.8462443559       -1.3299764425       -0.4645578271
 C         -3.1614509852       -1.7033745289       -0.6555898371
 C         -4.2071290046       -0.8188411122       -0.4303937741
 C         -5.6325829364       -1.2278412298       -0.6470454302
 C         -3.8815878504        0.4736868424       -0.0420808338
 C         -2.5713300291        0.8613121383        0.1538274003
 C          1.9056773772       -0.1288553764       -0.9400720133
 C          2.9820138881       -0.9693457492       -1.1843756609
 C          3.0467648225       -2.2025324609       -0.5752184472
 H          1.5842383697       -5.2638447759        2.1220155775
 H          0.2647314255       -4.3575699328        1.3421699203
 H          1.1850989995       -3.6229724057        2.6862941356
 H          0.2097127237       -2.0094509303        1.2825092238
 H          2.2019487618        4.1173258517       -0.6712664814
 H          1.2390223221        5.2864211822        1.2874948242
 H         -0.3310042461        4.0899409824        2.7748152091
 H         -0.9816010261        1.7685917399        2.2716662285
 H         -1.0648244225       -2.0384646605       -0.6906226392
 H         -3.3757653554       -2.7070414974       -0.9953268292
 H         -5.7569141191       -2.2972717067       -0.4920978007
 H         -5.9385494531       -0.9972880923       -1.6684560902
 H         -6.2956681008       -0.6936261191        0.0300213978
 H         -4.6687320524        1.1994163571        0.1065591625
 H         -2.3655224664        1.8859492429        0.4201951209
 H          3.7564421781       -0.6505546566       -1.8641484423
 H          3.8667514237       -2.8755190177       -0.7644187869
  40
        -61.74008257
 C          2.8781123719       -4.7145385885        1.0846073610
 O          1.8363763726       -3.7780634377        1.2169486793
 C          1.9052946910       -2.6231139089        0.4998224761
 C          0.8470019681       -1.7359279900        0.6930335312
 C          0.7870969598       -0.5377389973       -0.0013910824
 N         -0.2786027004        0.3627107613        0.1752325825
 C          0.1237927958        1.6800116291        0.4663828522
 C          1.1028526474        2.2951634196       -0.3127652380
 S          1.8386496533        1.3871785076       -1.6469403383
 C          1.5104702809        3.5924772909       -0.0475241110
 C          0.9505280992        4.2858532197        1.0097048532
 C          0.0132161032        3.6672914918        1.8216889308
 C         -0.3876449767        2.3696225723        1.5621051325
 C         -1.6115745172        0.0121449216       -0.0239088141
 C         -1.9745053638       -1.2877129836       -0.3796301667
 C         -3.2981743281       -1.6186577779       -0.5962564600
 C         -4.3098136283       -0.6767205984       -0.4839749089
 C         -5.7490361070       -1.0346806806       -0.7001102672
 C         -3.9412795437        0.6280734159       -0.1804529425
 C         -2.6238749500        0.9736780722        0.0382946579
 C          1.8501189239       -0.1916948295       -0.8379987887
 C          2.9079539378       -1.0620959952       -1.0209936594
 C          2.9334900911       -2.2857581622       -0.3748203121
 H          2.6170060234       -5.5395494460        1.7454160185
 H          3.8395382794       -4.2929954811        1.3950797395
 H          2.9576885687       -5.0856423835        0.0577380163
 H          0.0704627359       -2.0033844719        1.3916539130
 H          2.2577878751        4.0483305575       -0.6784813824
 H          1.2577894760        5.3009526654        1.2088696375
 H         -0.4047179346        4.1950665569        2.6656001582
 H         -1.1055307787        1.8789564338        2.2020767394
 H         -1.2199676485       -2.0461639690       -0.5134257276
 H         -3.5427579919       -2.6366447805       -0.8651483910
 H         -5.8511786521       -2.0808301706       -0.9775634812
 H         -6.1807635223       -0.4212549963       -1.4902338789
 H         -6.3252319016       -0.8594999639        0.2082933904
 H         -4.7008853987        1.3948156045       -0.1208018854
 H         -2.3815226496        2.0064856791        0.2338261857
 H          3.7115888747       -0.7826856415       -1.6844922053
 H          3.7623939005       -2.9517120131       -0.5499140749
