  20
        -34.89757603
 C          4.5951269039        0.7501857332       -0.0495964790
 C          3.8184142030       -0.3240366622        0.0332312239
 C          2.3625034840       -0.3476868874        0.0181358479
 C          1.7047232367       -1.5795983573       -0.0251991438
 C          0.3295546128       -1.6528685243       -0.0469364353
 C         -0.4521204467       -0.4947580963       -0.0194912147
 C         -1.8967696963       -0.6415073288       -0.0419576139
 C         -2.8247044227        0.3038314208       -0.0012994242
 F         -2.6544429462        1.6188487545        0.0705158254
 F         -4.1311505714        0.0411073922       -0.0277611219
 C          0.2016065723        0.7392899971        0.0299674236
 C          1.5779321565        0.8074171889        0.0476308627
 H          5.6681748481        0.6661358267       -0.0334949487
 H          4.2033366646        1.7485469158       -0.1414196867
 H          4.2819049806       -1.3003562802        0.1107030644
 H          2.2871306499       -2.4899363832       -0.0460601193
 H         -0.1543649118       -2.6182918289       -0.0835446372
 H         -2.2771249304       -1.6516743083       -0.0973593357
 H         -0.3673464659        1.6543043427        0.0551292618
 H          2.0509587855        1.7758777132        0.0917058316
