30
 energy: -48.974985420336 gnorm: 0.000037143327 xtb: 6.4.1 (23d549d)
C         3.34103539060000    2.55337095270000    0.49699952500000
N         3.00385827060000    1.21964576560000    0.06016165630000
C         1.66119548960000    0.85571735210000    0.02599642280000
C         0.63845486370000    1.78366720760000    0.01708539360000
C        -0.69262727480000    1.38929645800000   -0.08430930790000
C        -1.05457347630000    0.06193425930000   -0.18197484460000
C        -2.43875156610000   -0.31938201430000   -0.41940728570000
C        -3.51986648440000    0.35641895490000   -0.06112657370000
F        -3.58154401530000    1.48991840450000    0.63357831640000
F        -4.76278284920000   -0.04024556860000   -0.34888611970000
C         1.31887112860000   -0.53282681860000    0.07025127170000
C        -0.03768240010000   -0.93324059950000   -0.06715586590000
C        -0.33317437950000   -2.31177599190000   -0.01874500350000
C         0.64482215850000   -3.24748456200000    0.17813510540000
C         1.96960788650000   -2.84606708690000    0.37842406290000
C         2.29387531810000   -1.51840108280000    0.32784752240000
C         3.85468027480000    0.76781662690000   -1.02286876330000
H         2.76607587950000    2.80312393320000    1.38638114790000
H         3.16828422080000    3.31795258840000   -0.27315250080000
H         4.40119782880000    2.56674398780000    0.75427370280000
H         0.85651501470000    2.83948188470000    0.03461760450000
H        -1.44694016490000    2.15776471690000   -0.14721656310000
H        -2.63069084910000   -1.23527626480000   -0.95725338900000
H        -1.35691771630000   -2.63900635880000   -0.11117402960000
H         0.39214677690000   -4.29712969740000    0.21258486930000
H         2.72844265660000   -3.58514976450000    0.58894515720000
H         3.30542780680000   -1.20630874220000    0.53299682950000
H         3.93023073500000    1.53626874230000   -1.80421449220000
H         3.45378452270000   -0.13557383580000   -1.47370751140000
H         4.85967830960000    0.56601634570000   -0.64526663570000
