  24
        -34.12187756
 C          4.3704172293       -0.1047438414        0.4203406817
 C          3.2200701194       -0.6791561960        0.0887548528
 C          1.9190122830       -0.0311067182       -0.0049816563
 C          1.7119347477        1.3214109425        0.2731812964
 C          0.4546557139        1.8708837011        0.1674529155
 C         -0.6571290035        1.1057456963       -0.1943910584
 C         -1.9584774725        1.7758869077       -0.2370677896
 C         -3.1024339549        1.2913088234        0.2266211981
 C         -0.4538984764       -0.2424958765       -0.5063018780
 C         -1.5754254566       -1.1337596755       -0.9902550292
 C         -2.1248969739       -1.8735376917        0.1186061292
 N         -2.5403952241       -2.4552436491        1.0109145707
 C          0.8169777701       -0.7851487705       -0.4042072079
 H          5.2850211611       -0.6706716765        0.4634498289
 H          4.4535131480        0.9411374790        0.6608566453
 H          3.2116053746       -1.7377625826       -0.1418353989
 H          2.5385745034        1.9463700002        0.5718887264
 H          0.3099384364        2.9188391637        0.3893358404
 H         -1.9314849855        2.7823818164       -0.6390221064
 H         -3.1763060347        0.3255126820        0.6980598634
 H         -4.0112517066        1.8680826167        0.1846716478
 H         -1.1943399185       -1.8532519730       -1.7213595375
 H         -2.3728718487       -0.5439879805       -1.4499705854
 H          0.9594806358       -1.8306574364       -0.6443533711
