  23
        -36.71964768
 C         -4.3945258208       -0.0298654848       -0.1333469825
 C         -3.2517907448        0.6462878842       -0.1196109630
 C         -1.9105603272        0.0846254905       -0.0292403034
 C         -1.6535555634       -1.2865685139        0.0471592114
 C         -0.3638001526       -1.7604018733        0.1536195925
 C          0.7342127496       -0.8996886813        0.1690154947
 C          2.0834077703       -1.4398864049        0.3600760947
 C          2.5156557222       -2.5778136506       -0.1685105088
 C          0.4870090287        0.4788955426        0.0655282092
 C          1.5638883952        1.5108544176        0.0035921177
 O          1.4395706981        2.6118053256        0.4646823275
 O          2.6898727016        1.1659231503       -0.6517247044
 C         -0.8172645671        0.9480292469       -0.0139604129
 H         -5.3413128938        0.4773488307       -0.2017102210
 H         -4.4408821383       -1.1039458527       -0.0767984152
 H         -3.2795712438        1.7271857213       -0.1768741585
 H         -2.4712291012       -1.9900743736        0.0385717768
 H         -0.1917790567       -2.8217135635        0.2548669872
 H          2.7408431123       -0.8587641157        0.9962320553
 H          1.8995870847       -3.1746709074       -0.8208029582
 H          3.5085560990       -2.9470116440        0.0214207616
 H          2.6628942443        0.2542482015       -0.9767934876
 H         -0.9663144146        2.0164990040       -0.0730645443
  23
        -36.71947241
 C         -3.8254995343        1.4101993791       -0.3125819815
 C         -3.3846864871        0.2010254574        0.0139106206
 C         -1.9926626762       -0.2237176572        0.0786680732
 C         -1.6990369617       -1.5693386975        0.3158859843
 C         -0.3965355841       -2.0172083624        0.3578328199
 C          0.6784203762       -1.1456387809        0.1779860388
 C          2.0287966742       -1.7035651269        0.1151080947
 C          2.9977502239       -1.2567151327       -0.6746265747
 C          0.3927448860        0.2172797424       -0.0033221392
 C          1.4392118477        1.2821659526       -0.0644296433
 O          1.4112153257        2.1920189412       -0.8450188592
 O          2.3950146497        1.2184847551        0.8857720183
 C         -0.9219927841        0.6547992134       -0.0733901256
 H         -4.8785391594        1.6316375681       -0.3389124322
 H         -3.1665359069        2.2207014266       -0.5716214384
 H         -4.1020282082       -0.5755491351        0.2507210118
 H         -2.5082542360       -2.2720103948        0.4550552985
 H         -0.1955593085       -3.0678561856        0.5115927351
 H          2.1870008916       -2.5934852387        0.7127993878
 H          2.8621986770       -0.4080104471       -1.3247575804
 H          3.9616862409       -1.7344019917       -0.7087636753
 H          2.3246140899        0.4159610197        1.4197969252
 H         -1.0921803054        1.7081579050       -0.2310531540
  23
        -36.71938624
 C         -4.4336479862        0.1430838827       -0.0183080105
 C         -3.2470503853        0.7273253381       -0.1372292135
 C         -1.9457031455        0.0830709004       -0.0214519945
 C         -1.7822391787       -1.2871669321        0.1974543595
 C         -0.5248393414       -1.8443795651        0.2764904477
 C          0.6302082361       -1.0700695176        0.1501568110
 C          1.9266052519       -1.7464729271        0.1257756412
 C          2.9595446994       -1.3787798423       -0.6225546561
 C          0.4746653300        0.3143471686       -0.0195686386
 C          1.6128424088        1.2821303868       -0.0336920346
 O          1.6949624357        2.1951095940       -0.8065728919
 O          2.5239788102        1.1267513891        0.9495445651
 C         -0.7954404293        0.8634715283       -0.1254050947
 H         -5.3449883001        0.7062776313       -0.1213307132
 H         -4.5517878068       -0.9074356881        0.1852036964
 H         -3.2023447937        1.7900487221       -0.3399200338
 H         -2.6464578831       -1.9252054492        0.2947262706
 H         -0.4214671485       -2.9109221961        0.4176007763
 H          1.9830288625       -2.6540179595        0.7151339061
 H          2.9238154984       -0.5137770462       -1.2642914131
 H          3.8775833614       -1.9406176974       -0.6302536978
 H          2.3627720407        0.3303519074        1.4728988160
 H         -0.8770667081        1.9299908769       -0.2782949747
  23
        -36.71904873
 C         -3.8785966253        1.2830107007       -0.0394308097
 C         -3.3415539915        0.0760450320       -0.1734823658
 C         -1.9242694688       -0.2567590495       -0.1154141120
 C         -1.5368412449       -1.5978470535       -0.0495754313
 C         -0.2084774138       -1.9527978435        0.0307644948
 C          0.8051449544       -0.9926845829        0.0457172005
 C          2.2075213046       -1.3850714496        0.1203608184
 C          2.6477723220       -2.4827514489        0.7229329470
 C          0.4255682997        0.3569695858       -0.0619862865
 C          1.4478197345        1.4438516657       -0.0405098059
 O          2.4261044541        1.4430343713        0.6532517156
 O          1.2012847604        2.4796510777       -0.8710489577
 C         -0.9176886709        0.7057090674       -0.1342103056
 H         -4.9436788946        1.4284367525       -0.0907527378
 H         -3.2936845835        2.1692856581        0.1388846949
 H         -3.9944748980       -0.7745814697       -0.3258915070
 H         -2.2960650466       -2.3669934710       -0.0551894554
 H          0.0608988978       -2.9971976823        0.0671293518
 H          2.9177457299       -0.7030704263       -0.3244857508
 H          1.9900842863       -3.1666049080        1.2334592373
 H          3.6963492895       -2.7222314646        0.7510243423
 H          0.4039354613        2.3423923174       -1.4002170961
 H         -1.1943811906        1.7504977443       -0.1732722806
  23
        -36.71887925
 C         -4.3738717586       -0.0396499273        0.0024009026
 C         -3.2289308131        0.6331405730        0.0008578488
 C         -1.8877931188        0.0657967971       -0.0248754040
 C         -1.6319214557       -1.3067726221       -0.0677828440
 C         -0.3409228333       -1.7847861558       -0.0994228910
 C          0.7645218384       -0.9306036864       -0.0962993520
 C          2.1252337111       -1.4564719018       -0.1231450188
 C          2.4836351585       -2.6508921668        0.3323527972
 C          0.5161165867        0.4521600846       -0.0500680123
 C          1.6221609449        1.4573140098       -0.0580433570
 O          2.5716586576        1.4273765719       -0.7895961543
 O          1.4763411838        2.4647142624        0.8277394572
 C         -0.7901476810        0.9248543095       -0.0087499666
 H         -5.3207266857        0.4715731276        0.0219668841
 H         -4.4204348697       -1.1147557009       -0.0161028038
 H         -3.2590815670        1.7160848265        0.0192799356
 H         -2.4529869575       -2.0060789383       -0.0858287518
 H         -0.1751178257       -2.8496559877       -0.1542446053
 H          2.8725160293       -0.7924472294       -0.5316676771
 H          1.7856228999       -3.3365122624        0.7843012845
 H          3.5068640033       -2.9810079291        0.2853800063
 H          0.6840477859        2.3618474569        1.3720900064
 H         -0.9698589774        1.9934044244       -0.0033852775
  23
        -36.71767069
 C         -3.8138869931        1.4332150314        0.1742927824
 C         -3.3706191789        0.1883842580        0.0417566021
 C         -1.9808460704       -0.2419061756       -0.0317966650
 C         -1.6945107440       -1.6013223025       -0.1823503631
 C         -0.3943604448       -2.0522881743       -0.2524151393
 C          0.6857036867       -1.1730460472       -0.1675854648
 C          2.0435983647       -1.7079081788       -0.1675864433
 C          3.0492679169       -1.2412039065        0.5588341538
 C          0.4072122084        0.1951365969       -0.0405498447
 C          1.4861750585        1.2286120486       -0.0940142111
 O          2.2956092230        1.3175697011       -0.9711007966
 O          1.4526463820        2.1303546069        0.9138846511
 C         -0.9051692781        0.6424089046        0.0328688547
 H         -4.8676336915        1.6472228145        0.2192997935
 H         -3.1607675518        2.2865755585        0.2387749287
 H         -4.0903219827       -0.6186483056       -0.0208105442
 H         -2.5091839922       -2.3084709427       -0.2466496197
 H         -0.1989186675       -3.1093814439       -0.3604355423
 H          2.1859230050       -2.5908443355       -0.7775651369
 H          2.9458272174       -0.3930827631        1.2148771960
 H          4.0236503436       -1.6966442200        0.5270294360
 H          0.7409306304        1.9454383547        1.5416417099
 H         -1.0931715966        1.7045128014        0.1039477693
  23
        -36.71765537
 C         -4.4199085375        0.1439774246        0.1067276884
 C         -3.2310199525        0.7353156265        0.0930251170
 C         -1.9345175177        0.0781824970       -0.0031402080
 C         -1.7810193383       -1.3008748736       -0.1642404450
 C         -0.5279474482       -1.8670112285       -0.2481782501
 C          0.6327740883       -1.0953280930       -0.1697093180
 C          1.9327965871       -1.7581761101       -0.1883469189
 C          2.9874641126       -1.3937705077        0.5270183071
 C          0.4880680034        0.2916907525       -0.0327884055
 C          1.6581496017        1.2198429342       -0.0931571545
 O          2.4636572132        1.2363575881       -0.9782596108
 O          1.7198642012        2.1157657925        0.9184479540
 C         -0.7781165076        0.8555299888        0.0553838233
 H         -5.3271581138        0.7180295589        0.1819467551
 H         -4.5428570281       -0.9235705685        0.0461595452
 H         -3.1833117321        1.8154782670        0.1619992986
 H         -2.6512593314       -1.9346649817       -0.2298225422
 H         -0.4327653768       -2.9369841004       -0.3649423230
 H          1.9823157733       -2.6475478039       -0.8035358448
 H          2.9738739281       -0.5431363105        1.1877275966
 H          3.9130881625       -1.9405530098        0.4811636021
 H          0.9995646798        1.9973341763        1.5523416549
 H         -0.8748618962        1.9313753568        0.1355199099
