  23
        -50.74444226
 C          2.5410036658       -3.6023066144        0.3982118526
 C          2.3247482176       -2.4073045140       -0.1340403908
 C          1.0536918051       -1.6853352735       -0.0490444700
 C         -0.1465210689       -2.3878109767       -0.1277445662
 C         -1.3646640195       -1.7390305114       -0.0980839508
 C         -1.3896879600       -0.3543849741        0.0044345507
 C         -2.7003833073        0.3761204774        0.0711427331
 F         -3.7168163236       -0.3230962513       -0.4547918553
 F         -3.0558505476        0.6527109848        1.3431858409
 F         -2.6736281347        1.5535813396       -0.5705988687
 C         -0.2110064439        0.3691959911        0.0929475224
 C          1.0192120515       -0.2822924152        0.0681951833
 C          2.2659090116        0.4605092192        0.2224465571
 C          2.4773912015        1.7265944901       -0.1046005627
 F          1.6251500447        2.5684107712       -0.6687162616
 F          3.6413550149        2.3403412453        0.0786658919
 H          3.4899158554       -4.1002608128        0.2991535791
 H          1.7887570688       -4.1174719328        0.9716625564
 H          3.1160307763       -1.9106955239       -0.6793058995
 H         -0.1190226059       -3.4608312265       -0.2357058670
 H         -2.2866852565       -2.2951212841       -0.1643744103
 H         -0.2590884227        1.4416921849        0.1937056593
 H          3.1087043976       -0.0615468176        0.6489532605
