  17
        -25.20312880
 C          1.7675152674        1.9261824492       -0.3525698536
 C          1.7094501959        0.8011002950        0.3460405393
 C          0.7085523513       -0.2396307286        0.1891145765
 C          1.0169149649       -1.6280474002        0.2528504729
 C         -0.1339877363       -2.2929711583       -0.0244093591
 O         -1.1366543477       -1.4321189846       -0.2415607227
 C         -0.6430001444       -0.1735274794       -0.1069120066
 C         -1.6169214577        0.8860373817       -0.2170715545
 C         -1.4856441481        2.1363101020        0.2134043926
 H          2.5646511914        2.6359640220       -0.2112842303
 H          1.0275651481        2.1713130804       -1.0953786832
 H          2.4956087796        0.5625590203        1.0525392888
 H          1.9772733199       -2.0549751696        0.4596174116
 H         -0.3606200965       -3.3389128571       -0.0914478818
 H         -2.5505956163        0.5583916401       -0.6575012765
 H         -0.5875262570        2.4858246581        0.6906502432
 H         -2.2876736808        2.8455295821        0.1069525813
