37
 energy: -57.033516400292 gnorm: 0.000065975652 xtb: 6.4.1 (23d549d)
C        -7.12304944560000   -0.31565159770000   -0.23146909090000
C        -5.86282156780000   -0.71828270430000   -0.13196233870000
C        -4.68040581420000    0.13415476720000   -0.04986167010000
C        -4.72936750220000    1.53100298770000   -0.01040445520000
C        -3.54190773720000    2.23725903870000    0.06218269820000
C        -2.34509228140000    1.54436690610000    0.09112732410000
C        -2.38481537300000    0.14956019140000    0.05039900690000
C        -1.14424173170000   -0.64029890350000    0.07377118520000
C        -1.19193496970000   -2.03571168720000    0.09662466960000
C        -0.00001658860000   -2.73803793080000    0.11000890360000
C         1.19189313030000   -2.03571094920000    0.09586924630000
C         1.14418019150000   -0.64029775470000    0.07309510630000
C         2.38474159720000    0.14956878150000    0.04927031570000
C         2.34507976610000    1.54433382990000    0.09147007820000
C         3.54187009640000    2.23723560750000    0.06173304820000
C         4.72926116570000    1.53102667930000   -0.01240220520000
C         4.68027983660000    0.13419807020000   -0.05263917960000
C         5.86253882820000   -0.71831051340000   -0.13603922190000
C         7.12391864810000   -0.31592434610000   -0.22095893450000
N         3.52546747390000   -0.52538659170000   -0.01815553130000
N        -0.00003254320000    0.03393576930000    0.06590291180000
N        -3.52562067910000   -0.52545067780000   -0.01521339670000
H        -7.93248379150000   -1.02298967220000   -0.29078823560000
H        -7.40498244270000    0.72331529480000   -0.26059721120000
H        -5.62849185510000   -1.77407674540000   -0.11316940890000
H        -5.67415477700000    2.04968577760000   -0.03391176470000
H        -3.55099675420000    3.31787208610000    0.09517822120000
H        -1.39258112740000    2.04418055530000    0.14455179300000
H        -2.15125323210000   -2.52618810700000    0.10233023060000
H        -0.00001084170000   -3.81883272810000    0.12946087510000
H         2.15121484110000   -2.52618837290000    0.10098300240000
H         1.39263066530000    2.04411540190000    0.14628834000000
H         3.55099011960000    3.31783349760000    0.09522185970000
H         5.67396526860000    2.04979209080000   -0.03725711190000
H         5.62715567570000   -1.77402152310000   -0.12999253430000
H         7.40719592420000    0.72297950030000   -0.23539976850000
H         7.93306983780000   -1.02343966440000   -0.28197809730000
