  24
        -42.78272325
 C          1.6443781605       -2.3888909582       -0.0421140485
 C          0.8209764113       -1.1332412460       -0.0146626736
 C         -0.5642728012       -1.2292302211       -0.0061576148
 C         -1.3830183778       -0.1050048412        0.0077412075
 C         -2.8655627965       -0.2943032296        0.0785301205
 O         -3.5906448050        0.3338892465        0.7957179538
 O         -3.3570032299       -1.2604750491       -0.7217427252
 C         -0.8201493667        1.1774082839       -0.0136882011
 C         -1.6691188313        2.4054828172       -0.0189251878
 C          0.5619417503        1.2714947866       -0.0562012105
 C          1.3814026406        0.1471017537       -0.0326818002
 C          2.8567416131        0.3987342285       -0.0551793466
 O          3.3751163456        1.1775432360       -0.8027170266
 O          3.5846693372       -0.2802722505        0.8521554350
 H          1.1222623969       -3.1632951462       -0.6004648322
 H          1.8022121485       -2.7717013813        0.9681489413
 H          2.6121026654       -2.2261880888       -0.5102491479
 H         -1.0092200768       -2.2160418383        0.0247493792
 H         -2.6750474189       -1.6651770442       -1.2744680178
 H         -2.2772908959        2.4416916982        0.8826553901
 H         -2.3523907161        2.3967979503       -0.8666799797
 H         -1.0515769468        3.2976059168       -0.0725782002
 H          1.0341109522        2.2416925227       -0.0989896495
 H          3.0392942717       -0.8439093100        1.4161245965
