  80
        -93.64426349
 C         -1.6094506354        2.8414713377       -4.1689343552
 C         -1.0235051767        2.5088431099       -2.8016092202
 C         -2.0642506052        2.5200343166       -1.6816467475
 C         -3.0822153702        1.3872835732       -1.7907486893
 C         -4.0012503925        1.3383168856       -0.5732012601
 C         -5.0501142506        0.2349438142       -0.6981505680
 C         -5.9399427768        0.1132332698        0.5412085044
 C         -5.2207124782       -0.5349539111        1.7258624088
 C         -5.1233023697       -2.0565647535        1.5886298426
 C         -3.9977877901       -2.6756035314        2.4276804126
 O         -2.7574828994       -2.6591226423        1.7508272361
 C         -2.0305823600       -1.4967288553        1.6628794725
 C         -1.9439157957       -0.5448254270        2.6726026868
 C         -1.1549956465        0.5835510920        2.5397316806
 C         -1.0835334539        1.6161429644        3.6221127340
 C         -0.4089999213        0.7634348287        1.3670286934
 O          0.3095679778        1.9280987358        1.3118989732
 C          1.3235135467        2.1267197000        0.3512238068
 C          2.6975786419        1.6453989813        0.8293556211
 C          2.8129086766        0.1249830163        0.9085630274
 C          4.1499214829       -0.3451185534        1.4840817652
 C          5.3838638220        0.0641719266        0.6777734095
 C          5.3858981617       -0.4758512808       -0.7508903405
 C          6.7079603951       -0.1814926792       -1.4571927060
 C          6.7115001204       -0.5805102797       -2.9331819194
 C          6.6407573259       -2.0897307565       -3.1563600491
 C          6.7612778274       -2.4438801361       -4.6337458386
 C         -0.4834755266       -0.1949852087        0.3659508035
 C         -1.2841574784       -1.3187832225        0.4949298974
 C         -1.3489482133       -2.3475767304       -0.5917991687
 H         -0.8213086134        2.8908944794       -4.9173551155
 H         -2.1154953842        3.8040504433       -4.1405448175
 H         -2.3250162507        2.0851804361       -4.4803304444
 H         -0.2462816365        3.2401119251       -2.5645529866
 H         -0.5507863829        1.5243112876       -2.8440253495
 H         -2.5867960769        3.4795752596       -1.6878855351
 H         -1.5516468242        2.4329708227       -0.7213481332
 H         -2.5530577494        0.4351302211       -1.8722107483
 H         -3.6860737622        1.5150420032       -2.6912632258
 H         -4.5039390528        2.3019423422       -0.4580962442
 H         -3.3893882801        1.1740144055        0.3157739971
 H         -4.5439525194       -0.7144584896       -0.8822032194
 H         -5.6783202308        0.4444803118       -1.5675927459
 H         -6.8268569470       -0.4767908917        0.2973275384
 H         -6.2772432474        1.1118050546        0.8276258736
 H         -5.7514814573       -0.2974778212        2.6509160732
 H         -4.2220161842       -0.1078963742        1.8016309666
 H         -4.9370880518       -2.3257136337        0.5475250745
 H         -6.0728084614       -2.5097296514        1.8809905989
 H         -4.1968961789       -3.7402592057        2.5828114278
 H         -3.9388050709       -2.1921385526        3.4087939971
 H         -2.4966830563       -0.6755556397        3.5912848367
 H         -1.6450747082        1.3028209965        4.4982293356
 H         -1.4847755582        2.5626756066        3.2619910955
 H         -0.0466319083        1.7914216434        3.9035742821
 H          1.3562697892        3.2128692462        0.2113101803
 H          1.0707237382        1.6704461541       -0.6103297784
 H          2.8870826096        2.0744703855        1.8156042608
 H          3.4417928560        2.0411637678        0.1366378229
 H          2.6701985432       -0.3049548751       -0.0844293890
 H          2.0167311166       -0.2597122995        1.5497847041
 H          4.1250615243       -1.4352337249        1.5567969935
 H          4.2528639869        0.0489251464        2.4982973024
 H          6.2677086571       -0.3169476708        1.1960932692
 H          5.4684484748        1.1522693400        0.6555876018
 H          4.5745001503       -0.0191818290       -1.3204447302
 H          5.2133973696       -1.5530333036       -0.7221471623
 H          7.5181765483       -0.7024456590       -0.9413514827
 H          6.9097963327        0.8906729575       -1.3857884846
 H          7.6282886884       -0.2035102016       -3.3938918401
 H          5.8693077009       -0.1015698516       -3.4387800262
 H          5.6945962523       -2.4757426720       -2.7738654706
 H          7.4477224009       -2.5731225485       -2.6007667762
 H          5.9572403017       -1.9821282389       -5.2030754743
 H          6.7075282370       -3.5208322006       -4.7760278496
 H          7.7091544068       -2.0917661910       -5.0354564202
 H          0.0829674990       -0.0838748865       -0.5453661825
 H         -0.8634488494       -1.9919144641       -1.4972261031
 H         -2.3851227518       -2.5966365362       -0.8130301149
 H         -0.8595066788       -3.2650455909       -0.2671944897
