  17
        -32.83534850
 C          2.7071846668       -2.6403569240       -0.1574925287
 C          1.5781176605       -2.0281107826        0.1769341553
 C          1.3466282146       -0.5967577752        0.0770788136
 C          2.3394148526        0.3399534789        0.0636378438
 S          1.7463182306        1.9458672750       -0.0260589156
 C          0.1314714999        1.3820085527       -0.0524827149
 C          0.0464022291        0.0175725280        0.0086128009
 C         -1.1840246191       -0.7430452537       -0.0270120654
 C         -2.4166545528       -0.2570204590       -0.0097165292
 F         -2.7792648549        1.0200968942        0.0521807142
 F         -3.5074592387       -1.0195003488       -0.0520286547
 H          2.8220070863       -3.7046723658       -0.0478784329
 H          3.5510456202       -2.1074661541       -0.5608158494
 H          0.7535514257       -2.6134424421        0.5610345728
 H          3.3961845170        0.1767386735        0.1275501525
 H         -0.6670450425        2.0923882468       -0.1197378430
 H         -1.1066383506       -1.8175268138       -0.0822207761
