  24
        -34.12262176
 C          4.0057450675       -1.1089788432       -0.0600555045
 C          3.3938773191        0.0549623984        0.1246933286
 C          1.9608311300        0.3071830383        0.0581370986
 C          1.4696843113        1.5549930999        0.4450553118
 C          0.1193617764        1.8271660763        0.4090232380
 C         -0.8010551216        0.8719394183       -0.0206602331
 C         -2.2329656750        1.1699370683       -0.0288399753
 C         -2.7494269980        2.3634214255       -0.2892346939
 C         -0.3141551137       -0.3778065133       -0.4281301427
 C         -1.2582425699       -1.4426725546       -0.9431196435
 C         -1.9985931931       -2.0238880407        0.1501384509
 N         -2.5737730825       -2.4774236682        1.0277644688
 C          1.0411814672       -0.6452053154       -0.3813245702
 H          5.0759692956       -1.1956497289        0.0153849992
 H          3.4767164840       -2.0195101616       -0.2837505562
 H          3.9901487696        0.9272036334        0.3642855922
 H          2.1588532841        2.3129675253        0.7892636448
 H         -0.2415256608        2.7892137208        0.7401190765
 H         -2.8919443264        0.3424890518        0.2021339086
 H         -2.1347281448        3.2097009831       -0.5479001418
 H         -3.8120696860        2.5341959406       -0.2702240447
 H         -0.6967070637       -2.2407026478       -1.4365342340
 H         -1.9676686061       -1.0184812757       -1.6600081011
 H          1.3947365498       -1.6133950570       -0.7038933409
  24
        -34.12230455
 C          4.4280505331        0.3292740225       -0.3856799284
 C          3.3735567090       -0.4344567399       -0.1244696420
 C          1.9894191210        0.0036130750       -0.0092118239
 C          1.5750973181        1.3129588264       -0.2574448078
 C          0.2500648788        1.6663053984       -0.1305577221
 C         -0.7218671917        0.7396268854        0.2496081133
 C         -2.1208326734        1.1407074189        0.3774673562
 C         -2.7102024689        2.0616522097       -0.3728971827
 C         -0.3131707991       -0.5757247734        0.5081605870
 C         -1.3172589631       -1.6343793320        0.9040343955
 C         -2.3133146894       -1.7951152903       -0.1269079237
 N         -3.0919021944       -1.9212615712       -0.9539626876
 C          1.0176100106       -0.9243080089        0.3669924540
 H          5.4180724461       -0.0883858282       -0.4496581228
 H          4.3551424367        1.3916861561       -0.5422221056
 H          3.5233367242       -1.4963950637        0.0306601956
 H          2.2943415428        2.0598827180       -0.5544190799
 H         -0.0483459061        2.6878423393       -0.3120107544
 H         -2.7016329331        0.6329347375        1.1369054621
 H         -2.1924137602        2.5688298553       -1.1693870192
 H         -3.7451980958        2.3218983088       -0.2349036606
 H         -1.8235362106       -1.3622384315        1.8365302046
 H         -0.8165753049       -2.5951161380        1.0526715631
 H          1.3197204364       -1.9460220387        0.5569124315
  24
        -34.12225376
 C          4.1066489865       -1.0147457441       -0.1135138581
 C          3.4318852098        0.1154029855       -0.2896946480
 C          2.0032278610        0.3218240539       -0.0965507901
 C          1.4672129685        1.5958932931       -0.2927640160
 C          0.1215390168        1.8332726963       -0.1185276572
 C         -0.7519159772        0.8135676404        0.2594625209
 C         -2.1761011704        1.0848662135        0.4403565710
 C         -2.8678975705        1.9677975187       -0.2669674457
 C         -0.2206104835       -0.4677435287        0.4651298273
 C         -1.1187279005       -1.6201670322        0.8547411759
 C         -2.1319213187       -1.8326241015       -0.1498143262
 N         -2.9245808180       -1.9986091289       -0.9561664796
 C          1.1297966844       -0.6986118179        0.2793478584
 H          5.1683241798       -1.0631229349       -0.2840599128
 H          3.6418928054       -1.9323608974        0.2039555131
 H          3.9702421570        0.9998012594       -0.6086621083
 H          2.1200191839        2.4070743781       -0.5823392379
 H         -0.2684636609        2.8300654566       -0.2586067372
 H         -2.6848245064        0.5098277632        1.2035210740
 H         -2.4222314460        2.5380478836       -1.0644412923
 H         -3.9166446305        2.1323672116       -0.0908565992
 H         -1.6144042721       -1.4217708244        1.8112409588
 H         -0.5348807960       -2.5393336990        0.9548115950
 H          1.5148433640       -1.6963865402        0.4294869762
  24
        -34.12187756
 C          4.3704172293       -0.1047438414        0.4203406817
 C          3.2200701194       -0.6791561960        0.0887548528
 C          1.9190122830       -0.0311067182       -0.0049816563
 C          1.7119347477        1.3214109425        0.2731812964
 C          0.4546557139        1.8708837011        0.1674529155
 C         -0.6571290035        1.1057456963       -0.1943910584
 C         -1.9584774725        1.7758869077       -0.2370677896
 C         -3.1024339549        1.2913088234        0.2266211981
 C         -0.4538984764       -0.2424958765       -0.5063018780
 C         -1.5754254566       -1.1337596755       -0.9902550292
 C         -2.1248969739       -1.8735376917        0.1186061292
 N         -2.5403952241       -2.4552436491        1.0109145707
 C          0.8169777701       -0.7851487705       -0.4042072079
 H          5.2850211611       -0.6706716765        0.4634498289
 H          4.4535131480        0.9411374790        0.6608566453
 H          3.2116053746       -1.7377625826       -0.1418353989
 H          2.5385745034        1.9463700002        0.5718887264
 H          0.3099384364        2.9188391637        0.3893358404
 H         -1.9314849855        2.7823818164       -0.6390221064
 H         -3.1763060347        0.3255126820        0.6980598634
 H         -4.0112517066        1.8680826167        0.1846716478
 H         -1.1943399185       -1.8532519730       -1.7213595375
 H         -2.3728718487       -0.5439879805       -1.4499705854
 H          0.9594806358       -1.8306574364       -0.6443533711
  24
        -34.12142373
 C          3.5353388704       -1.5189865336        0.0715535170
 C          3.1372854445       -0.2520790096        0.0765574145
 C          1.7620687726        0.2275417871        0.0639928142
 C          1.5173880269        1.5972938699       -0.0419327212
 C          0.2291130506        2.0861282358       -0.0559621095
 C         -0.8706295396        1.2339929573        0.0359146098
 C         -2.2280010787        1.7778696353        0.0422331893
 C         -2.6111677367        2.8540885765       -0.6316693559
 C         -0.6336625797       -0.1444018134        0.1429021459
 C         -1.8070114915       -1.0990413146        0.2278008014
 C         -1.4377937043       -2.4795117405        0.0479734609
 N         -1.1623530815       -3.5797632488       -0.0956111994
 C          0.6621127417       -0.6257059515        0.1576819630
 H          4.5809863470       -1.7747949106        0.0784646876
 H          2.8490145479       -2.3481064819        0.0552566450
 H          3.8842070869        0.5329342956        0.0812232109
 H          2.3501042845        2.2827823242       -0.1105026609
 H          0.0616044909        3.1510713667       -0.1160494693
 H         -2.9534478860        1.2493805030        0.6481953276
 H         -1.9370389935        3.3981889878       -1.2716538007
 H         -3.6220336315        3.2212325636       -0.5826906159
 H         -2.5473399020       -0.8496198503       -0.5399181715
 H         -2.2904961288       -1.0081632398        1.2084201706
 H          0.8214197871       -1.6894363257        0.2448009918
  24
        -34.12047752
 C          3.5163736323       -1.5631839042        0.3939491591
 C          3.1789358150       -0.2979484272        0.1751441597
 C          1.8266675755        0.2246760608        0.0287297812
 C          1.6434892706        1.5300425187       -0.4318479514
 C          0.3777692347        2.0487724111       -0.5876619297
 C         -0.7606871152        1.3064752205       -0.2674554361
 C         -2.0623327041        1.9617280522       -0.4190273693
 C         -3.0569269080        1.9288227048        0.4570061117
 C         -0.5877533583       -0.0084764537        0.1788759060
 C         -1.7658772483       -0.9110675211        0.4737621235
 C         -1.5294938416       -2.2461048008       -0.0162385942
 N         -1.3415325803       -3.3036831050       -0.4074328461
 C          0.6901805795       -0.5254148033        0.3216525902
 H          4.5476119264       -1.8588617189        0.4830623663
 H          2.7909210985       -2.3537257817        0.4812627346
 H          3.9604356547        0.4455379098        0.0728995822
 H          2.5048463496        2.1344328298       -0.6778538500
 H          0.2532143684        3.0608307058       -0.9461890899
 H         -2.1620517848        2.5661623575       -1.3129370909
 H         -2.9873608845        1.3975039556        1.3914578141
 H         -3.9735917302        2.4678451002        0.2868695178
 H         -2.6737198848       -0.5269081372        0.0006617177
 H         -1.9380173302       -0.9737750719        1.5543011435
 H          0.7989855714       -1.5411892638        0.6713776116
