  23
        -36.36172384
 C         -4.0245950221        0.3094966112       -0.0223469021
 C         -3.2407348151       -0.7572632189       -0.1163758638
 C         -1.7849811760       -0.6951799496       -0.0443028222
 C         -1.0199281899       -1.8672055332       -0.0730092257
 C          0.3551057216       -1.7578118035       -0.0447574663
 C          0.9457806014       -0.4985638722        0.0179996832
 C          2.4355665758       -0.4287946054       -0.0143933355
 N          2.9416998852        0.5000748709       -0.8649135138
 O          3.1443310119       -1.1658731064        0.6358777974
 C          0.0989163091        0.6210301994        0.1175272350
 C          0.6203847424        1.9719681647        0.3288864264
 C         -0.0989558780        3.0650827253        0.1099445271
 N         -1.2203870928        0.5010212052        0.0659847201
 H         -5.0971786504        0.2376454515       -0.0763997627
 H         -3.5971979587        1.2873686748        0.1163958155
 H         -3.6583869794       -1.7467039087       -0.2485235787
 H         -1.4999587083       -2.8325660941       -0.1200596547
 H          0.9898281567       -2.6314541681       -0.0782203365
 H          2.3543314124        1.0764802675       -1.4402706515
 H          3.9412308795        0.5680488240       -0.9634103771
 H          1.6345886669        2.0379655121        0.6983803660
 H         -1.1076710792        2.9905013229       -0.2577458773
 H          0.2926416051        4.0514310645        0.2900591710
  23
        -36.36111772
 C         -4.1704486443       -1.1702918123       -0.2216295413
 C         -3.2769110521       -0.2053719353       -0.0442591909
 C         -1.8276226197       -0.3670462651        0.0065075957
 C         -1.1783736467       -1.6067326222       -0.0234473311
 C          0.2008059044       -1.6258168948       -0.0234803608
 C          0.9126432086       -0.4295789136        0.0200161138
 C          2.4012229527       -0.5042491447       -0.0440202967
 N          2.9749165847        0.3657245886       -0.9136788157
 O          3.0498624856       -1.3019811364        0.5972125833
 C          0.1801011250        0.7654709098        0.1367854458
 C          0.8304013723        2.0592275683        0.3444579730
 C          0.2012032595        3.2163982878        0.1835409578
 N         -1.1462160282        0.7684622886        0.1070168290
 H         -5.2252919267       -0.9567870655       -0.2469098023
 H         -3.8968356490       -2.2039544618       -0.3504443906
 H         -3.5964572517        0.8213665114        0.0711082646
 H         -1.7391258380       -2.5265339456       -0.0471292501
 H          0.7482906754       -2.5564612389       -0.0624021861
 H          2.4328653094        0.9926015499       -1.4807054071
 H          3.9739777670        0.3372424937       -1.0339295362
 H          1.8632169586        2.0267026691        0.6633468589
 H         -0.8282062625        3.2388906519       -0.1298376656
 H          0.6883465574        4.1597430594        0.3610184795
  23
        -36.36108418
 C         -4.1708981207        0.0669597570        0.2043392552
 C         -3.3207557178       -0.9415196846        0.0570478369
 C         -1.8744137094       -0.7692118479       -0.0178152850
 C         -1.0325674013       -1.8705929447       -0.2065643291
 C          0.3327635442       -1.6668998999       -0.2028830443
 C          0.8385401621       -0.3805278427       -0.0412854721
 C          2.3198287029       -0.2196592185        0.0576561095
 N          2.7312299346        0.4351177581        1.1730235924
 O          3.0954476809       -0.6987670810       -0.7402689776
 C         -0.0827476258        0.6781532036        0.0436656709
 C          0.2988810513        2.0920141174        0.0490799247
 C          1.3524841561        2.5959778992       -0.5784166945
 N         -1.3896956863        0.4632705675        0.0893380781
 H         -5.2351164690       -0.0854556156        0.2565617270
 H         -3.8077165974        1.0776836353        0.2744512374
 H         -3.6721389767       -1.9621732974       -0.0184354725
 H         -1.4460318846       -2.8592125283       -0.3339357966
 H          1.0227072586       -2.4911242800       -0.3114485467
 H          2.0826730724        0.9015277317        1.7812487708
 H          3.7161485052        0.6041596963        1.2951942550
 H         -0.4139106958        2.7388377672        0.5425626421
 H          2.0412446934        1.9785978827       -1.1310308697
 H          1.5545598402        3.6537064635       -0.5777718374
  23
        -36.36080208
 C         -4.1787009252       -1.1429843259       -0.2076679472
 C         -3.2781995774       -0.1881345242       -0.0121987712
 C         -1.8274627566       -0.3426063937       -0.0482824894
 C         -1.1776793816       -1.5585412047       -0.2865294011
 C          0.2023071818       -1.5753412978       -0.2948405941
 C          0.9158842135       -0.4019625204       -0.0630282236
 C          2.4074895956       -0.4404050005       -0.0518924934
 N          2.9405858511       -1.1197781251       -1.1001918383
 O          3.1012782331        0.0563802756        0.8087377118
 C          0.1812269016        0.7766143935        0.1776402160
 C          0.8412860772        2.0550212969        0.4212180983
 C          0.1710040097        3.1891637778        0.5869966661
 N         -1.1459488307        0.7753772382        0.1688523760
 H         -5.2336014764       -0.9334247717       -0.1613733614
 H         -3.9122906592       -2.1648030150       -0.4194844966
 H         -3.5928401293        0.8249177408        0.1978988872
 H         -1.7363722128       -2.4648191979       -0.4538584224
 H          0.7319381675       -2.5050662163       -0.4553736598
 H          2.3797461203       -1.4612544122       -1.8595712475
 H          3.9429511457       -1.1780825456       -1.1731635033
 H          1.9187619637        2.0293141717        0.4783668547
 H         -0.9044998060        3.2023481839        0.5411017276
 H          0.6732709920        4.1229405484        0.7717316635
  23
        -36.36045139
 C         -4.2177425796       -1.4100118831        0.1020665263
 C         -3.3902742844       -0.3726412931        0.1117885421
 C         -1.9360790278       -0.4255635862        0.0084172837
 C         -1.2079433837       -1.6013966950       -0.2014895606
 C          0.1702604666       -1.5298637091       -0.2076554011
 C          0.8040132416       -0.3019294064       -0.0394465277
 C          2.2947095905       -0.2902447909        0.0478606164
 N          2.7777855378        0.3127160405        1.1635932784
 O          3.0121391850       -0.8389018983       -0.7596485041
 C         -0.0066379906        0.8415787528        0.0583704782
 C          0.5100332133        2.2114843072        0.0654590648
 C          1.6049982508        2.6125761363       -0.5655281361
 N         -1.3284550636        0.7520981864        0.1156840649
 H         -5.2825730865       -1.2754892237        0.1847841233
 H         -3.8779946616       -2.4281708715        0.0140513155
 H         -3.7747673411        0.6333847317        0.2103821270
 H         -1.7074155044       -2.5457734003       -0.3418381522
 H          0.7747495154       -2.4167082078       -0.3315624468
 H          2.1836607818        0.8382672159        1.7791394572
 H          3.7755589180        0.3821642065        1.2783907338
 H         -0.1349488292        2.9226828030        0.5635405391
 H          2.2281470350        1.9330981441       -1.1232239665
 H          1.9087615606        3.6456662837       -0.5626910103
  23
        -36.35854996
 C         -4.2244970900       -1.3982541306       -0.1579736565
 C         -3.3917205992       -0.4016796527        0.1146989361
 C         -1.9383526170       -0.4268942501       -0.0106357749
 C         -1.2111066140       -1.5305132504       -0.4664796168
 C          0.1671444553       -1.4461901439       -0.4935867914
 C          0.8002244650       -0.2699440355       -0.1029674869
 C          2.2906918163       -0.2432939436       -0.0068927502
 N          2.9168607522       -0.5424530467       -1.1749011449
 O          2.8953873409       -0.0255212744        1.0181293873
 C         -0.0115319150        0.8084846957        0.2902119586
 C          0.5191651995        2.1231105795        0.6465333211
 C          1.5920400847        2.6858943166        0.1107679046
 N         -1.3312918348        0.7010231768        0.3454658709
 H         -5.2879608675       -1.2864833597       -0.0340020719
 H         -3.8916460985       -2.3597789942       -0.5112741914
 H         -3.7706536723        0.5461640447        0.4715604056
 H         -1.7086585926       -2.4367180296       -0.7709583916
 H          0.7591525558       -2.3006159338       -0.7937468497
 H          2.4105380623       -0.7195517850       -2.0236833506
 H          3.9225834786       -0.5855173667       -1.1892850366
 H         -0.0867249170        2.6610108570        1.3620641755
 H          2.1869076950        2.1972899273       -0.6427429376
 H          1.9162617101        3.6687930536        0.4064196451
