30
 energy: -41.322133164585 gnorm: 0.000033162685 xtb: 6.4.1 (23d549d)
C         0.07449492440000   -1.58190852720000   -2.10383582730000
C        -0.94398940340000   -1.64211112230000   -1.25852902310000
C        -1.51312615450000   -0.51445565390000   -0.51895740540000
C        -2.89771032380000   -0.46267009930000   -0.36843697740000
C        -3.51466727040000    0.59667049950000    0.26855937030000
C        -2.74787599230000    1.62999565250000    0.77985349590000
C        -1.37114913640000    1.58223242210000    0.66141929630000
C        -0.73775147690000    0.51657454150000    0.02998364540000
C         0.73751968490000    0.51681941580000   -0.02979046310000
C         1.37052297300000    1.58255446850000   -0.66147034940000
C         2.74720652550000    1.63046483720000   -0.78043884270000
C         3.51430929140000    0.59722470910000   -0.26945596620000
C         2.89773878670000   -0.46215213530000    0.36788316550000
C         1.51324782360000   -0.51403921120000    0.51896046470000
C         0.94426433490000   -1.64160446390000    1.25882123800000
C        -0.07311999520000   -1.58065726080000    2.10539288480000
H         0.41416951170000   -2.45413225930000   -2.63662381100000
H         0.60182312110000   -0.66549244500000   -2.30609482450000
H        -1.46794207320000   -2.58097629460000   -1.12214977930000
H        -3.49675260170000   -1.26384709130000   -0.77835780270000
H        -4.59017053560000    0.61702856840000    0.36626771850000
H        -3.21924362930000    2.46505047870000    1.27701643350000
H        -0.76540367930000    2.37265279590000    1.08256582550000
H         0.76451910080000    2.37287470490000   -1.08242803310000
H         3.21827731730000    2.46552934640000   -1.27786233240000
H         4.58975526600000    0.61761887370000   -0.36776297230000
H         3.49705005580000   -1.26323134770000    0.77760381830000
H         1.46721889620000   -2.58087719980000    1.12144467940000
H        -0.59937240150000   -0.66377004430000    2.30839353600000
H        -0.41291054630000   -2.45265488050000    2.63847963580000
