  41
        -72.31015812
 C          1.1364956296       -4.6031217136        1.9661641078
 O          2.1322622356       -4.4424180200        0.9843276003
 C          2.2498388129       -3.2393491425        0.3643921770
 C          1.4512713691       -2.1340680835        0.6285631068
 C          1.6358807344       -0.9515390924       -0.0831665740
 N          0.8258765702        0.1742363036        0.1710075796
 C          1.5529760501        1.3572046140        0.4222137618
 C          2.5790813735        1.7312955435       -0.4439889685
 S          2.9727622155        0.6872615891       -1.8220309827
 C          3.2987138485        2.8955481999       -0.2257923710
 C          3.0093729405        3.6867981857        0.8704477403
 C          2.0284738742        3.2945961002        1.7673562834
 C          1.3130253282        2.1304269824        1.5533697010
 C         -0.5503900625        0.1510184298        0.0442718756
 C         -1.3170362046        1.3097747172        0.2184792989
 C         -2.6872424986        1.2860138367        0.0899464689
 C         -3.3639763909        0.1075640767       -0.2329783274
 C         -4.8041381334        0.0102657089       -0.3659803467
 C         -5.7182474595        0.9480972603       -0.1609796420
 F         -5.5304755422        2.2088713151        0.2203258331
 F         -7.0276481161        0.7368975845       -0.3157561497
 C         -2.5919278501       -1.0337643852       -0.4639239382
 C         -1.2222651049       -1.0172451404       -0.3362895186
 C          2.6741528929       -0.8574150887       -1.0026322124
 C          3.4804204435       -1.9575161276       -1.2597421269
 C          3.2595892965       -3.1441808265       -0.5980992514
 H          1.2270268171       -5.6320113848        2.3101124906
 H          0.1346278702       -4.4472342592        1.5532603467
 H          1.2918343457       -3.9248749036        2.8112381277
 H          0.6749072294       -2.1637224364        1.3764100863
 H          4.0756411145        3.1715438271       -0.9216662374
 H          3.5615572597        4.5992444991        1.0338831581
 H          1.8209020811        3.8944721890        2.6402260346
 H          0.5586176306        1.8136786216        2.2578737390
 H         -0.8332838349        2.2491741554        0.4334257128
 H         -3.2328222801        2.2037473395        0.2357607445
 H         -5.1962669204       -0.9503124881       -0.6684734114
 H         -3.0792453165       -1.9527144188       -0.7564352712
 H         -0.6645896358       -1.9125730229       -0.5614304555
 H          4.2714926714       -1.8728554842       -1.9879178287
 H          3.8670259949       -4.0124391849       -0.7934823534
