  22
        -34.09851573
 C          3.3930724115        0.8060329617       -0.2393019690
 C          2.6212615207       -0.0883818175        0.3661759942
 C          1.1837039344       -0.2795871782        0.1683102520
 C          0.7098340823       -1.5888154641        0.1696579081
 C         -0.6242183864       -1.8383812580       -0.0671980375
 F         -1.0645229101       -3.1199993393       -0.0999021996
 C         -1.5242369974       -0.8112239836       -0.2662521365
 C         -1.0889541125        0.5055538196       -0.1958012979
 C         -2.1038927137        1.5619807725       -0.3335499601
 C         -2.2957127692        2.5601100722        0.5168227143
 C          0.2773522772        0.7874278242        0.0000108274
 N          0.7274908455        2.0863180710       -0.0370368769
 H          4.4521951414        0.8486919875       -0.0470526397
 H          3.0141828366        1.4897788617       -0.9795180327
 H          3.0762574224       -0.8018108125        1.0438112546
 H          1.3899433419       -2.4122716844        0.3231893997
 H         -2.5658810974       -1.0331532125       -0.4387455308
 H         -2.7688283089        1.4489944637       -1.1813651905
 H         -1.7016919909        2.6798214154        1.4094563601
 H         -3.0820560908        3.2816552637        0.3732052688
 H          0.0194297690        2.7987378976        0.0291974052
 H          1.5893528025        2.2742291641        0.4490174742
