  34
        -46.60805132
 C          7.1016240320        0.5070654564       -0.2775847073
 C          6.1495081337       -0.3672542349        0.0291590558
 C          4.7142289833       -0.1279322638        0.0290706376
 C          4.1466473780        1.1290521895       -0.1920560660
 C          2.7807345983        1.2988731547       -0.1814110137
 C          1.9102623280        0.2253101717        0.0413666438
 C          0.4830104514        0.4677342060        0.0332763893
 C         -0.4826629218       -0.4644309027        0.0637769217
 C         -1.9098312619       -0.2217069418        0.0494286095
 C         -2.7802371561       -1.3078062870       -0.1012374695
 C         -4.1460442381       -1.1387994649       -0.1273901127
 C         -4.7138321833        0.1306295549        0.0044691420
 C         -6.1488136487        0.3704884096       -0.0138769406
 C         -7.1051156334       -0.5324668639       -0.2019027782
 C         -3.8464825815        1.2149721691        0.1663621442
 C         -2.4800774884        1.0476625758        0.1872115840
 C          2.4804477595       -1.0308120981        0.2705007436
 C          3.8470075657       -1.1983037290        0.2665427146
 H          8.1423264109        0.2328652985       -0.2514220233
 H          6.8904344134        1.5214926167       -0.5693650344
 H          6.4359632493       -1.3758251010        0.3035962543
 H          4.7826268549        1.9832660688       -0.3667013805
 H          2.3665070892        2.2828543616       -0.3538966153
 H          0.2085174760        1.5130104177       -0.0256379729
 H         -0.2082507586       -1.5112826322        0.0789860527
 H         -2.3660072849       -2.3014258913       -0.2046929423
 H         -4.7815055399       -2.0027606942       -0.2472223124
 H         -6.4320005930        1.4051066281        0.1409505775
 H         -6.8988219860       -1.5760219833       -0.3666693093
 H         -8.1450490420       -0.2541822432       -0.1995328444
 H         -4.2614476310        2.2074107866        0.2782564717
 H         -1.8472933039        1.9113583811        0.3233544211
 H          1.8474304071       -1.8829749378        0.4655246398
 H          4.2621119440       -2.1800031361        0.4498061391
