  37
        -57.03463080
 C         -5.9344379154       -1.8153048048        0.2298183614
 C         -5.9056041921       -0.4904425449        0.1651866515
 C         -4.6744795814        0.2887848519        0.0759801790
 C         -4.7229770095        1.6863609922        0.0519597998
 C         -3.5368507376        2.3950536233       -0.0250884739
 C         -2.3431299627        1.6989069058       -0.0759433114
 C         -2.3851803614        0.3029720445       -0.0503712927
 C         -1.1444279888       -0.4859611590       -0.1006593099
 C         -1.1917189704       -1.8795695690       -0.1735853479
 C          0.0000038112       -2.5810824654       -0.2128773243
 C          1.1917231700       -1.8795664193       -0.1735405266
 C          1.1444263958       -0.4859582724       -0.1006095410
 C          2.3851756625        0.3029763087       -0.0502711683
 C          2.3431138243        1.6989151011       -0.0756070044
 C          3.5368359515        2.3950611354       -0.0247747983
 C          4.7229762734        1.6863639109        0.0520151821
 C          4.6744873218        0.2887844902        0.0758578652
 C          5.9056223859       -0.4904506505        0.1648599348
 C          5.9344382405       -1.8152935263        0.2298908511
 N          3.5234875991       -0.3741507349        0.0224520871
 N         -0.0000024799        0.1871587891       -0.0696944471
 N         -3.5234811983       -0.3741517013        0.0225504745
 H         -6.8573125756       -2.3651964059        0.2976640649
 H         -5.0191591149       -2.3809275339        0.2173267725
 H         -6.8210517437        0.0867535445        0.1807820011
 H         -5.6734648098        2.1969216091        0.0951037635
 H         -3.5446137725        3.4759562999       -0.0446064835
 H         -1.3897846516        2.1965034248       -0.1347024038
 H         -2.1505945739       -2.3699095343       -0.1983931622
 H          0.0000063645       -3.6604537321       -0.2723686484
 H          2.1506013593       -2.3699030568       -0.1983159271
 H          1.3897583965        2.1965148266       -0.1341726538
 H          3.5445896932        3.4759669855       -0.0441172453
 H          5.6734665017        2.1969232994        0.0951187758
 H          6.8210908229        0.0867246572        0.1799862294
 H          5.0191378457       -2.3808924028        0.2178898418
 H          6.8573196512       -2.3651930716        0.2975808176
