  33
        -42.35996293
 C         -3.2414643862        3.0872264544        0.6123585379
 C         -3.1976912575        1.8511119122        0.1218646805
 C         -2.0644409326        0.9670745822        0.1916579433
 C         -0.8237843043        1.1625594458        0.7325408614
 C          0.0620171161        0.0640298064        0.6221237360
 C          1.4626809565        0.2481346474        1.1648042034
 C          2.4443942718       -0.9216180040        1.0519665693
 C          2.8763271763       -1.1980009214       -0.3867040360
 C          3.4919825799        0.0480501043       -1.0126357348
 C          2.5002909614        1.2026826183       -0.9360080918
 C          2.1287252153        1.4771123302        0.5166740715
 C         -0.5409649580       -1.0133832953        0.0068332880
 C         -0.1057811880       -2.3683573978       -0.2427046809
 C         -0.6390170634       -3.1654242633       -1.1643322064
 S         -2.1754107846       -0.6260391587       -0.4791571747
 H         -4.1269629291        3.6916432491        0.5260562662
 H         -2.4019764526        3.5354827502        1.1148408366
 H         -4.0663240634        1.4390835975       -0.3755475713
 H         -0.5541572472        2.0800173528        1.2241746317
 H          1.3362591547        0.4671255332        2.2353008269
 H          2.0271708363       -1.8166105876        1.5147570588
 H          3.3334585349       -0.6546946068        1.6312093436
 H          2.0176727800       -1.5013944486       -0.9864448116
 H          3.5984177068       -2.0179597756       -0.3958682429
 H          3.7592472484       -0.1519074975       -2.0522464463
 H          4.4058974126        0.3183880501       -0.4774286905
 H          1.5995062940        0.9493563936       -1.4998785226
 H          2.9341905800        2.1011016273       -1.3804313802
 H          1.4732335149        2.3461756595        0.5688885592
 H          3.0362101691        1.7138113665        1.0781457507
 H          0.6750523327       -2.7524870654        0.3949812791
 H         -1.4224384521       -2.8281461508       -1.8229501978
 H         -0.3047893087       -4.1800371241       -1.2911627226
