  19
        -35.16854890
 C         -3.9629565399       -1.4938853748        0.0074546760
 C         -2.6360155880       -1.5111945734       -0.0041249364
 C         -1.8195154705       -0.3021203911       -0.0033098338
 C         -0.4260646267       -0.3979549044       -0.0043574876
 C          0.3411539678        0.7647509396       -0.0016273215
 C          1.7967090399        0.7808005384       -0.0003601319
 C          2.6254451965       -0.2525248630        0.0006807252
 F          2.3207047526       -1.5423883238        0.0000532497
 F          3.9487077487       -0.1223744089        0.0026739132
 C         -0.3399230218        1.9854932446        0.0006227507
 C         -1.7248583644        1.9739888565        0.0007443504
 N         -2.4483318094        0.8736839960       -0.0007571004
 H         -4.5458436921       -2.3987124562        0.0074335340
 H         -4.4938179573       -0.5576446170        0.0175274215
 H         -2.0884286706       -2.4442875638       -0.0137705986
 H          0.0345684919       -1.3720140918       -0.0066949888
 H          2.2676051422        1.7533123291        0.0006631389
 H          0.2022395638        2.9182891465        0.0024585741
 H         -2.2859827124        2.8998826493        0.0024695392
  19
        -35.16768908
 C         -3.6252576032       -2.2099963946        0.0023534357
 C         -3.4727299222       -0.8919406850        0.0006513164
 C         -2.2096340007       -0.1608172563       -0.0002317214
 C         -0.9571540235       -0.7743381210        0.0010240037
 C          0.1976985391        0.0063441448        0.0003921490
 C          1.4878829308       -0.6679692442        0.0023227352
 C          2.6945184566       -0.1213308089        0.0007132170
 F          3.0067104636        1.1663315299       -0.0033073754
 F          3.8151037227       -0.8370208696        0.0029982389
 C          0.0416061848        1.3947081494       -0.0017440974
 C         -1.2454703642        1.9082789330       -0.0030159994
 N         -2.3348152516        1.1677137989       -0.0022134677
 H         -4.6041282913       -2.6576713141        0.0030711330
 H         -2.7959276730       -2.8971572617        0.0030020939
 H         -4.3367262458       -0.2417449448       -0.0000342371
 H         -0.8760945023       -1.8497332087        0.0025742189
 H          1.4685213761       -1.7483260720        0.0055175875
 H          0.8875091087        2.0603556006       -0.0022696568
 H         -1.4110238818        2.9779229506       -0.0046492183
