  21
        -30.95788586
 C          4.0295623998       -0.3784662377       -0.0131661798
 C          3.1789875867        0.6395582440       -0.0672258451
 C          1.7239937240        0.5572695959       -0.0351105765
 C          0.9835461510        1.7339275644        0.1183201046
 C         -0.3923140455        1.6992366636        0.1468146862
 C         -1.0750413493        0.4853520897        0.0321835734
 C         -2.4852052142        0.5512959595        0.0110231056
 N         -3.6232128094        0.6983574919       -0.0200052384
 C         -0.3561850211       -0.7149999536       -0.1132722426
 C         -0.9902654926       -2.0256720353       -0.2218019682
 C         -2.1608045422       -2.3747046399        0.2953404508
 C          1.0322725428       -0.6448038726       -0.1604879109
 H          5.0936753488       -0.2186864812       -0.0377535455
 H          3.7104144359       -1.4036060226        0.0656577464
 H          3.5698428007        1.6481728469       -0.1246171857
 H          1.4974105170        2.6796041179        0.2111799829
 H         -0.9615267302        2.6117319634        0.2510838102
 H         -0.3949772835       -2.7679756438       -0.7403867015
 H         -2.7754623012       -1.6916165656        0.8551975103
 H         -2.5437295346       -3.3744752723        0.1812931781
 H          1.5833188846       -1.5633278729       -0.2956639110
