  51
        -58.13368752
 C         -2.7622599775       -1.8549677893        0.0874534012
 C         -3.4184774775       -0.4993921363        0.3222217693
 C         -3.8671017406        0.1426310464       -0.9885647765
 C         -4.5978417553        1.4748745834       -0.8051572595
 C         -3.7608716720        2.5901158288       -0.1742873369
 C         -2.5476905763        2.9746266278       -1.0175712793
 C         -1.7684013578        4.1652675861       -0.4565606641
 C         -1.1879364641        3.9558883714        0.9459116202
 C         -0.3770940913        2.6716763035        1.1242595598
 C          0.8427313852        2.5843411382        0.2102304257
 C          1.6264953399        1.2849472280        0.3976478719
 C          0.8810720971        0.0574038237       -0.1412692960
 C          1.7080804329       -1.1797925018        0.0180453688
 C          1.7372864645       -1.9373443744        1.2202540095
 C          2.5749416374       -3.0025656318        1.1821509040
 C          2.8580068701       -4.0059331766        2.2428537492
 S          3.3651700904       -3.1038754202       -0.3617352928
 C          2.5403855542       -1.6844945725       -0.9340067489
 C          2.7876357813       -1.1834786373       -2.3154740074
 H         -2.4404021179       -2.2950801176        1.0288154518
 H         -1.8909886061       -1.7532744824       -0.5568013891
 H         -3.4599818746       -2.5399390996       -0.3896206341
 H         -2.7084009144        0.1544200895        0.8314459148
 H         -4.2833631502       -0.6215665428        0.9786455726
 H         -4.5432498135       -0.5482207982       -1.4992962457
 H         -3.0004104727        0.2820200052       -1.6371815357
 H         -5.4786882590        1.3065321826       -0.1799196870
 H         -4.9497976587        1.8119241333       -1.7837894991
 H         -3.4410500177        2.2824407580        0.8211384714
 H         -4.3980475076        3.4702766834       -0.0531781285
 H         -2.8886511027        3.2322407095       -2.0242005380
 H         -1.8773629267        2.1206477250       -1.1100255456
 H         -2.4270892090        5.0370902807       -0.4228190165
 H         -0.9568197096        4.4024682034       -1.1480853952
 H         -2.0035209072        3.9503187353        1.6724278739
 H         -0.5519388070        4.8133736005        1.1811719761
 H         -1.0262565612        1.8140416666        0.9514005753
 H         -0.0402137265        2.6196431210        2.1633285122
 H          1.5013420925        3.4308086334        0.4206752880
 H          0.5323336388        2.6587749837       -0.8333099559
 H          1.8433467582        1.1358975531        1.4578680707
 H          2.5830124198        1.3659132349       -0.1244748901
 H          0.6448151104        0.2145491209       -1.1958850047
 H         -0.0533759301       -0.0751773149        0.4053774867
 H          1.1427922373       -1.6873502201        2.0820421770
 H          2.2720328713       -3.7805927068        3.1309467071
 H          3.9152011627       -3.9988834013        2.5081532820
 H          2.6071381047       -5.0101569326        1.9014245576
 H          3.5148478270       -1.8143560353       -2.8200005318
 H          3.1691063148       -0.1625011733       -2.2942531198
 H          1.8647518940       -1.1867464037       -2.8969982362
