24
 energy: -33.680683507974 gnorm: 0.000043117134 xtb: 6.4.1 (23d549d)
C         3.80270984360000   -0.33405623680000   -0.03845897440000
C         2.88997835180000    0.62907598020000    0.00974431820000
C         1.44198646980000    0.46618889120000    0.00218510720000
C         0.63678594260000    1.60545166240000    0.03475931500000
C        -0.74398668530000    1.52698797670000    0.02061790830000
C        -1.58596045400000    2.77437718870000    0.05056111460000
C        -1.34943408780000    0.26844965700000   -0.02318448030000
O        -2.70593642800000    0.13596023490000   -0.03491353320000
C        -0.56778073770000   -0.89991707250000   -0.04719105260000
C        -1.24320927750000   -2.19200597560000   -0.09564284510000
C        -0.69460104000000   -3.37498202080000    0.15014932190000
C         0.81558616750000   -0.77502489700000   -0.03937460700000
H         4.85516477390000   -0.10786066560000   -0.02778782610000
H         3.54767858720000   -1.37831682230000   -0.09141555570000
H         3.22304022690000    1.65920272110000    0.05955751260000
H         1.10392300740000    2.58007271520000    0.06764861160000
H        -0.94814186130000    3.65346560630000    0.08187855360000
H        -2.22823199960000    2.79577388400000    0.93341682050000
H        -2.21339394020000    2.84852587470000   -0.84011769210000
H        -3.11222109010000    1.01016864010000   -0.01794796210000
H        -2.29522923410000   -2.13402118280000   -0.33911889980000
H         0.33904469300000   -3.49355858930000    0.42786881960000
H        -1.27260215530000   -4.28126913070000    0.09121081540000
H         1.41295683890000   -1.67035352440000   -0.07894827590000
