37
 energy: -57.027648578554 gnorm: 0.000057146035 xtb: 6.4.1 (23d549d)
C        -6.08256081620000   -1.10685999370000    0.24359096670000
C        -5.77360226450000    0.13417710910000   -0.10945941100000
C        -4.40377443780000    0.62305205530000   -0.23363841930000
C        -4.15738613740000    1.96105963900000   -0.55744343030000
C        -2.84702472670000    2.39620948240000   -0.65720912350000
C        -1.82289000930000    1.49401234950000   -0.43477158270000
C        -2.15990786330000    0.17478705560000   -0.12211630650000
C        -1.10295267490000   -0.82085398950000    0.11174288080000
C        -1.41187022420000   -2.17386464840000    0.26563408550000
C        -0.37449919440000   -3.06609814000000    0.46418592150000
C         0.92448284530000   -2.58827047700000    0.51801585190000
C         1.13666082060000   -1.21591640250000    0.36914773420000
C         2.49209128450000   -0.63454550340000    0.42654301490000
C         3.47196098420000   -1.16174695870000    1.27032210940000
C         4.72159054720000   -0.56552504480000    1.27884327680000
C         4.95711642610000    0.52382139860000    0.46069289880000
C         3.91543287130000    0.99513675740000   -0.34451992140000
C         4.03361481750000    2.14164727360000   -1.24048142670000
C         5.10282387360000    2.90973866350000   -1.40517515550000
N         2.71902189900000    0.41505565920000   -0.34825710270000
N         0.14205784310000   -0.36561802360000    0.16381875260000
N        -3.41528342590000   -0.24215852060000   -0.02662309430000
H        -7.10229822170000   -1.44055265630000    0.33058623980000
H        -5.30633802710000   -1.82087493000000    0.45700195970000
H        -6.54765459070000    0.86043556130000   -0.32144363920000
H        -4.98194514620000    2.63839511140000   -0.72359964650000
H        -2.62942804680000    3.42559998360000   -0.90556121410000
H        -0.78245777350000    1.76700117910000   -0.49548162590000
H        -2.44103858530000   -2.48863974770000    0.21780182160000
H        -0.57167840030000   -4.12351468730000    0.57304227280000
H         1.75597621710000   -3.26346493950000    0.64979946940000
H         3.25464634640000   -1.99830847720000    1.91607086670000
H         5.50348484210000   -0.94640378070000    1.92115551920000
H         5.92425666450000    0.99998640000000    0.44969075660000
H         3.12653449620000    2.33870170500000   -1.79521141470000
H         6.02501272020000    2.75237348490000   -0.87134479830000
H         5.09446626140000    3.73962350720000   -2.09098377200000
