  23
        -29.60502326
 C          3.9803191243        0.1404975631       -0.1179337388
 C          2.8198955981        0.7647385776        0.0440866005
 C          1.4942244730        0.1593721952        0.0322986975
 C          1.2780392467       -1.2126213591       -0.1041252511
 C         -0.0037478351       -1.7194842717       -0.0894799210
 C         -1.1219111838       -0.9007933344        0.0344598835
 C         -2.4790649184       -1.5351372186        0.0767842012
 C         -0.9239583528        0.4803607625        0.1514299205
 C         -2.0111603379        1.4569689183        0.2719032288
 C         -3.1372914603        1.4660330694       -0.4260904428
 C          0.3770442923        0.9769507718        0.1714819971
 H          4.9129659221        0.6778635850       -0.0950857307
 H          4.0541934973       -0.9209084910       -0.2812894346
 H          2.8209180190        1.8373385474        0.1992211894
 H          2.1134500988       -1.8873196942       -0.2070655058
 H         -0.1498189110       -2.7876360823       -0.1749212922
 H         -2.4140776857       -2.5274313105        0.5194001336
 H         -2.8796630257       -1.6486488660       -0.9309373917
 H         -3.1765079613       -0.9335730494        0.6546641839
 H         -1.8143805801        2.2644542467        0.9681267357
 H         -3.3605534144        0.7219016648       -1.1704923936
 H         -3.8716957104        2.2436066498       -0.2969798534
 H          0.5191532558        2.0441172298        0.2813033295
