  30
        -34.88648371
 C         -2.3125817589        2.5236845418       -0.0065477498
 C         -1.5881589440        1.2103281208        0.0096861153
 C         -2.2972367163        0.0164681929        0.0025739312
 C         -1.6330290841       -1.1976583351       -0.0046144150
 C         -2.3889543962       -2.4934726788        0.0012061783
 C         -0.2424463021       -1.2110238918       -0.0044824128
 C          0.4943025403       -0.0362956096        0.0013192658
 C          2.0158115726       -0.0146626553       -0.0003137209
 C          2.6282549289       -1.4179173200       -0.0035902224
 C          2.5040394549        0.7213365109       -1.2559309728
 C          2.5085188019        0.7169107120        1.2560983190
 C         -0.2038192631        1.1684454658        0.0081460452
 H         -3.2534245121        2.4537977562        0.5350842295
 H         -2.5371357418        2.8125923539       -1.0341441069
 H         -1.7064488542        3.3089177043        0.4396026242
 H         -3.3783393709        0.0382587764        0.0032047294
 H         -3.4506611787       -2.3261825772       -0.1626255744
 H         -2.2642797492       -2.9975345796        0.9597995335
 H         -2.0152978659       -3.1589607337       -0.7754498133
 H          0.2500746961       -2.1701846140       -0.0082169606
 H          2.3314264608       -1.9723448689       -0.8908617127
 H          2.3324816677       -1.9758507877        0.8818444698
 H          3.7138348043       -1.3396720827       -0.0042182229
 H          2.1410441684        0.2188343642       -2.1502149165
 H          3.5917867619        0.7349908097       -1.2843453715
 H          2.1501538924        1.7482624979       -1.2759333390
 H          2.1459457439        0.2133820715        2.1499517597
 H          2.1580858287        1.7449199176        1.2793746030
 H          3.5963564606        0.7273329177        1.2822564819
 H          0.3351431730        2.1045723195        0.0125824420
