  23
        -40.17553887
 C         -2.0708482931        2.5511876129       -0.1062461610
 C         -1.2050846011        1.3308784460       -0.0514945409
 C          0.1707319119        1.3885753658       -0.0557669462
 C          0.9700374224        0.2394611640       -0.0147112246
 C          2.4424710310        0.3360043461       -0.0231042843
 O          3.1846015223       -0.5836175246       -0.2916769988
 O          2.9849403171        1.5243268770        0.2978285714
 C          0.3504421739       -1.0337918501        0.0042156935
 N          1.0855680533       -2.1656573173        0.0523556690
 C         -1.0614381217       -1.1116985932        0.0331758781
 C         -1.7492265385       -2.4448369343        0.0821477245
 C         -1.7838564661        0.0600981604        0.0072457272
 F         -3.1352176176       -0.0079631031        0.0258068643
 H         -1.4677730915        3.4509481290       -0.1921086810
 H         -2.6825964080        2.6206929973        0.7927816548
 H         -2.7471096399        2.4965419977       -0.9583175034
 H          0.6236863914        2.3684679632       -0.1364304867
 H          2.3221873910        2.1722737913        0.5689587393
 H          2.0795057325       -2.0742107297       -0.1089145545
 H          0.6386644540       -3.0538600835       -0.0765397482
 H         -1.5128809043       -3.0340071742       -0.8047808911
 H         -2.8262914802       -2.3111295442        0.1232742798
 H         -1.4375255027       -3.0036049475        0.9645018094
