  29
        -43.53404159
 C         -0.8590397991       -3.4659195831        0.6720978590
 C         -1.2607208870       -2.4639028477       -0.0980580505
 C         -0.7003596869       -1.1135327018       -0.0910205547
 C         -1.5836552556       -0.0349023369       -0.0924002865
 O         -2.9104623866       -0.3534900944       -0.1279744083
 C         -3.8634131818        0.6800203873       -0.1423631061
 C         -1.1082311855        1.2790187485       -0.0246793317
 C          0.2398108273        1.5657875735        0.0431129810
 C          0.7615938710        2.9190337306        0.1471374932
 C          0.0567433080        4.0442925925        0.2026498883
 C          1.1680142304        0.4866004424        0.0012091813
 N          2.4828379060        0.7746921449        0.0387827668
 C          3.3513339807       -0.1922102329       -0.0376049795
 C          2.9954086395       -1.5409935171       -0.2005029105
 C          1.6671340277       -1.8653970669       -0.2300733841
 C          0.6914059772       -0.8530057841       -0.0880687654
 H         -1.3323046642       -4.4324035012        0.6296999470
 H         -0.0643860449       -3.3538597030        1.3913685541
 H         -2.1119304699       -2.5956646976       -0.7540901305
 H         -4.8308856038        0.1823357330       -0.1936407191
 H         -3.7459352673        1.3286277937       -1.0166988388
 H         -3.8190969790        1.2833625711        0.7701969068
 H         -1.8112841779        2.0953570003       -0.0087447975
 H          1.8412013107        2.9587086487        0.1790839104
 H         -1.0200439405        4.0711084906        0.1769134547
 H          0.5438666404        5.0012375656        0.2776228577
 H          4.3924932674        0.1026853912        0.0072056508
 H          3.7599208020       -2.2944587811       -0.3131507214
 H          1.3523404258       -2.8863932776       -0.3853861100
  29
        -43.53120340
 C         -1.8968032096       -3.2357915014        0.4359794357
 C         -0.9478728840       -2.5955791791       -0.2317772426
 C         -0.6098384773       -1.1794072581       -0.0811412003
 C         -1.6002962578       -0.2052641412        0.0166527098
 O         -2.8946651519       -0.6314993847        0.0123808821
 C         -3.9327244586        0.3146818625       -0.0468406966
 C         -1.2468067149        1.1481995063        0.0815560767
 C          0.0610830607        1.5931605945        0.0544164519
 C          0.2764407451        3.0309768733        0.1120669813
 C          1.4295882266        3.6877969128        0.0439703745
 C          1.0977647156        0.6179704108       -0.0240169360
 N          2.3824295970        1.0153221652       -0.0306140448
 C          3.3360296470        0.1299151634       -0.0793865108
 C          3.1067257062       -1.2534565162       -0.1085399858
 C          1.8115901726       -1.6924248788       -0.1041585917
 C          0.7461558578       -0.7637124202       -0.0817438010
 H         -2.1001853270       -4.2788488318        0.2600789797
 H         -2.4953063924       -2.7480039927        1.1844239198
 H         -0.3573119316       -3.1354823749       -0.9624561379
 H         -4.8505556651       -0.2676797156       -0.1175401330
 H         -3.8469625257        0.9584469963       -0.9282109708
 H         -3.9712030690        0.9335195410        0.8560242978
 H         -2.0282240704        1.8903085675        0.1488863451
 H         -0.6414730207        3.6009541664        0.2158116526
 H          2.3649013048        3.1708402394       -0.0610235360
 H          1.4530517261        4.7641009486        0.0957896423
 H          4.3453283511        0.5232729762       -0.0848543528
 H          3.9355398191       -1.9445564887       -0.1232569189
 H          1.5970580517       -2.7505852761       -0.1002886558
  29
        -43.52859990
 C         -1.8067623286       -2.9413209976       -0.9486240846
 C         -1.1559884104       -2.3993699385        0.0686973600
 C         -0.7024065747       -0.9972244769        0.0871832301
 C         -1.5480804983        0.0972964830        0.0398102199
 O         -2.9117867699        0.0965129071        0.0963087081
 C         -3.6246710272       -0.9803240095        0.6534429190
 C         -1.0185622882        1.4017552624       -0.0562571021
 C          0.3268828324        1.6658410894       -0.0676575726
 C          0.8869907757        3.0054693919       -0.1645008500
 C          0.2120193832        4.1263593847       -0.3922236073
 C          1.2244525374        0.5600155090        0.0406520044
 N          2.5452139822        0.8073801781        0.0623421477
 C          3.3820586390       -0.1901489985        0.1295548786
 C          2.9807864664       -1.5332220565        0.1645016051
 C          1.6406961923       -1.8134400950        0.1464584811
 C          0.7014757370       -0.7601157875        0.1034257468
 H         -2.1045709263       -3.9765604669       -0.9489296668
 H         -2.0587120765       -2.3671271743       -1.8256090814
 H         -0.8830220856       -3.0045237284        0.9263444072
 H         -4.5662180715       -0.5565564426        1.0063417148
 H         -3.0900996113       -1.4272892294        1.4949805331
 H         -3.8340880998       -1.7566039402       -0.0884402237
 H         -1.7409528100        2.2008931319       -0.1062558013
 H          1.9609647825        3.0325351879       -0.0459351078
 H         -0.8553331147        4.1488714362       -0.5340723833
 H          0.7143209027        5.0767035013       -0.4509193635
 H          4.4320177935        0.0741832473        0.1492961146
 H          3.7175606099       -2.3210744056        0.2001141604
 H          1.2971271750       -2.8374971045        0.1581009310
  29
        -43.52815987
 C         -1.1379262078       -3.1894786626       -0.8579183695
 C         -1.2771340127       -2.3479644487        0.1540507769
 C         -0.7807057011       -0.9554939998        0.1215507479
 C         -1.5927982920        0.1645321316        0.0832962289
 O         -2.9566312096        0.2207832101        0.0745229602
 C         -3.7562089857       -0.9010645075        0.3550449847
 C         -1.0251443762        1.4532100656       -0.0071819027
 C          0.3261832379        1.6789224545       -0.0504558356
 C          0.9235514992        3.0019677291       -0.1528542328
 C          0.2736436859        4.1567186795       -0.2430003725
 C          1.1911070103        0.5452087465        0.0156419784
 N          2.5186230681        0.7545220638       -0.0089858631
 C          3.3295818185       -0.2634588910        0.0592981424
 C          2.8911034959       -1.5905832417        0.1718833976
 C          1.5440455293       -1.8323629334        0.1950583142
 C          0.6306945742       -0.7588965135        0.1030171445
 H         -1.4818451893       -4.2088578333       -0.8024452704
 H         -0.6845668938       -2.8837681630       -1.7868142407
 H         -1.7299922931       -2.6839887329        1.0793459482
 H         -4.7832531469       -0.5519395974        0.2468097233
 H         -3.6080501694       -1.2517864544        1.3803195504
 H         -3.5774934291       -1.7202748471       -0.3451939658
 H         -1.7263746209        2.2712742168       -0.0492667446
 H          2.0042934519        2.9859911024       -0.1524626800
 H         -0.8010527296        4.2262145698       -0.2508078514
 H          0.8052684907        5.0900922850       -0.3147124720
 H          4.3865165156       -0.0294185132        0.0318661559
 H          3.6054532033       -2.3964515759        0.2432415959
 H          1.1716786280       -2.8421417260        0.2884761087
  29
        -43.52704430
 C         -1.7037522568       -3.0397338790       -0.9191672423
 C         -1.1181365121       -2.4314491943        0.0999712674
 C         -0.7524884477       -1.0028944043        0.0910117257
 C         -1.6627586624        0.0351884924        0.0218196008
 O         -3.0240937246       -0.0406559263        0.0686361807
 C         -3.6812541707       -1.1600305485        0.6097398436
 C         -1.2035352219        1.3636665692       -0.0913202900
 C          0.1233822387        1.7202566676       -0.1010727725
 C          0.4429456279        3.1349418779       -0.2285568640
 C          1.6455995396        3.6963639897       -0.2839988901
 C          1.0876174106        0.6721246110        0.0255987520
 N          2.3960489975        0.9719147121        0.0557098810
 C          3.2809142568        0.0184812315        0.1430966085
 C          2.9482971464       -1.3413604407        0.1933539408
 C          1.6226142021       -1.6812849396        0.1703142278
 C          0.6333105490       -0.6759021196        0.1065252008
 H         -1.9395098522       -4.0906419984       -0.8974957259
 H         -1.9629377587       -2.5063324415       -1.8195001706
 H         -0.8369263711       -2.9944807591        0.9834257401
 H         -4.6556436195       -0.7955703491        0.9386300452
 H         -3.1407350732       -1.5722774798        1.4651231281
 H         -3.8235021201       -1.9479525739       -0.1357280176
 H         -1.9693260543        2.1220614341       -0.1651608982
 H         -0.4356294510        3.7683997992       -0.2877477838
 H          2.5433038007        3.1091417105       -0.2305561516
 H          1.7501030400        4.7645578583       -0.3825457528
 H          4.3159676836        0.3366921871        0.1674817004
 H          3.7209185855       -2.0930846023        0.2446281162
 H          1.3258577980       -2.7196757759        0.1944124675
  29
        -43.52660177
 C         -1.0694966208       -3.2120518245        0.8552882370
 C         -1.2376580457       -2.3859518770       -0.1647202460
 C         -0.8278330742       -0.9651478309       -0.1288207007
 C         -1.7079033344        0.0997363398       -0.0766022030
 O         -3.0722085971        0.0736334787       -0.0664433165
 C         -3.7989244925       -1.0885633816       -0.3792029426
 C         -1.2123703327        1.4154581100        0.0293281708
 C          0.1229447877        1.7344210147        0.0757787096
 C          0.4789166354        3.1401086714        0.2073262309
 C          1.6934403986        3.6650621168        0.3249591071
 C          1.0580729747        0.6579793780       -0.0147574271
 N          2.3746121406        0.9224709244       -0.0051047102
 C          3.2361322925       -0.0510432582       -0.0974344652
 C          2.8672541274       -1.3967542765       -0.2219001077
 C          1.5331730684       -1.7010421777       -0.2333488111
 C          0.5676506687       -0.6766997556       -0.1175763537
 H         -1.3513021748       -4.2503607694        0.8001961442
 H         -0.6517517096       -2.8750782979        1.7900349671
 H         -1.6517284807       -2.7522726461       -1.0968319118
 H         -4.8466083222       -0.8029415748       -0.2839094782
 H         -3.5835449656       -1.9076391557        0.3108400054
 H         -3.6121676128       -1.4124986874       -1.4069717121
 H         -1.9586443259        2.1943429428        0.0870949532
 H         -0.3816579282        3.8004214404        0.2134904233
 H          2.5740111015        3.0501364554        0.3267844300
 H          1.8254424844        4.7305371127        0.4200461972
 H          4.2796094316        0.2388351011       -0.0808584261
 H          3.6193315752       -2.1654334372       -0.3122769354
 H          1.2082919403       -2.7261024439       -0.3369357362
