  24
        -42.12764622
 C         -4.3150828383        2.3303867357        0.0279466070
 C         -3.0123706330        2.3320902551       -0.2293620613
 C         -2.1034246341        1.1971205536       -0.1424905765
 C         -2.5135975754       -0.0906494485        0.1991556953
 C         -1.6160749350       -1.1384915813        0.2486138137
 C         -0.2659884723       -0.9380970464       -0.0239709936
 O          0.6661449106       -1.9218013469       -0.0548306693
 C          0.2820416047       -3.2389693908        0.2548603522
 C          0.1765284005        0.3613209034       -0.3382366238
 C          1.5804312896        0.6563774130       -0.6173451715
 C          2.6326381391        0.1502868530        0.0028787902
 F          2.6515719906       -0.6855457871        1.0292963030
 F          3.8884900428        0.4777616610       -0.3094538880
 C         -0.7499329560        1.3908015812       -0.4137098042
 H         -4.9036620447        3.2267031726       -0.0652475283
 H         -4.8480473529        1.4491054586        0.3405976153
 H         -2.5420474522        3.2584083633       -0.5364014072
 H         -3.5508841820       -0.2871378854        0.4192553403
 H         -1.9788866272       -2.1226338937        0.4998788325
 H          1.1916275308       -3.8322007965        0.1780490548
 H         -0.4605199796       -3.6190858336       -0.4543676287
 H         -0.1109935032       -3.3132066315        1.2733133804
 H          1.7865061963        1.3880620408       -1.3846738702
 H         -0.3998293025        2.3795964140       -0.6745395139
