  22
        -36.98983788
 C          3.7830517188        1.5442568186       -0.1523812472
 C          3.3498763112        0.2980454327       -0.0040119934
 C          1.9586559567       -0.1314716242        0.0293609892
 C          0.8690229426        0.7403611265       -0.0347725706
 C         -0.4207419659        0.2320999515        0.0107783154
 C         -1.5378686103        1.2289336620        0.0515652798
 O         -1.5898718803        2.1848565648       -0.6686947696
 O         -2.4564760488        1.0338522076        1.0171458179
 C         -0.6071047397       -1.1587813709        0.0719105211
 C         -1.9031500682       -1.8236900225       -0.0131486232
 C         -2.9355007942       -1.3806015594       -0.7212069111
 C          0.5566734905       -1.9327844879        0.1552326970
 N          1.7757177834       -1.4495887998        0.1431483368
 H          4.8354538313        1.7691995789       -0.1706447302
 H          3.1192474790        2.3845136688       -0.2653428584
 H          4.0505153661       -0.5192845645        0.0985146100
 H          1.0050819945        1.8077189758       -0.0985793578
 H         -2.3225342598        0.2035477691        1.4936809319
 H         -1.9599914102       -2.7824116021        0.4878152240
 H         -2.8975209302       -0.4589641000       -1.2787328512
 H         -3.8548187204       -1.9366755664       -0.7824874485
 H          0.4831238749       -3.0111989323        0.2247877052
