  27
        -43.59945940
 C         -4.3887852154       -0.5217981807        0.8701902345
 C         -3.6508355593        0.1879591417        0.0262127679
 C         -2.1929828174        0.1584987904       -0.0358032886
 C         -1.4656569778       -0.9751556736        0.2840137548
 C         -0.0718156682       -1.0036555715        0.1817602365
 C          0.6509510099       -2.2397822119        0.4544515456
 C          1.7552637870       -2.6339868667       -0.1649247732
 C          0.5449094929        0.1850679268       -0.2218596834
 C          2.0348564493        0.3297274224       -0.2828645114
 O          2.6730512461        0.6134747210       -1.2609264031
 O          2.5700523220        0.1366953846        0.9308043223
 C          3.9841717982        0.2391611155        1.0156070085
 N         -0.1267188064        1.2838053162       -0.5284848324
 C         -1.4527721335        1.2910403333       -0.4577426424
 N         -2.0513817032        2.4552300605       -0.8381493443
 H         -5.4638760297       -0.4699340610        0.8611920496
 H         -3.9491932132       -1.1696550328        1.6096626730
 H         -4.1370181871        0.8427898756       -0.6862157740
 H         -1.9877904042       -1.8733064418        0.5817811633
 H          0.1918907124       -2.8825959275        1.1960756249
 H          2.2136707368       -2.0510519694       -0.9460564641
 H          2.2317429116       -3.5692933528        0.0756227008
 H          4.2240779681        0.3185544234        2.0728629831
 H          4.3333815974        1.1185953081        0.4708848627
 H          4.4492567425       -0.6514490950        0.5869461625
 H         -1.4201695756        3.2242822263       -0.9907448269
 H         -2.9673316790        2.6746019540       -0.4893750722
