  30
        -43.78030163
 C          5.5275121992       -1.2250399932       -0.0037441728
 C          4.8854872839       -0.0622330412       -0.0032539124
 C          3.4434786600        0.1451196658       -0.0025272651
 C          2.9633070386        1.4666341681       -0.0152155328
 C          1.6180021050        1.7603780609       -0.0161138791
 C          0.7056949513        0.7116579969       -0.0034917652
 C          1.1844218654       -0.6213831809        0.0100778474
 C          2.5357019517       -0.9116414488        0.0105761881
 N          0.1109006103       -1.4771653236        0.0215241096
 C         -1.0508667231       -0.7463154184        0.0152966918
 C         -2.3638497505       -1.1787487968        0.0228756433
 C         -3.3845218922       -0.2292790753        0.0115868521
 C         -4.7629886502       -0.7006963533        0.0160989716
 C         -5.8644196163        0.0387423136       -0.0496643881
 C         -3.0555273095        1.1368167288       -0.0023753393
 C         -1.7493742070        1.5719195226       -0.0080400664
 C         -0.7251283917        0.6313123942       -0.0003300887
 H          6.6031341842       -1.2693594249       -0.0050903982
 H          5.0201042971       -2.1744139466       -0.0037399948
 H          5.4683194091        0.8511197593       -0.0047046049
 H          3.6812168897        2.2744533216       -0.0249061525
 H          1.2757235085        2.7843167719       -0.0262375267
 H          2.8729945958       -1.9364104071        0.0216059246
 H          0.1670468432       -2.4807803976        0.0321208794
 H         -2.5979866102       -2.2341134549        0.0350882253
 H         -4.8654287929       -1.7781612626        0.0756718012
 H         -5.8455356685        1.1127055853       -0.1167982417
 H         -6.8414685120       -0.4134225323       -0.0411060498
 H         -3.8494424562        1.8666088166       -0.0055706312
 H         -1.5207463246        2.6271717687       -0.0180382319
