  22
        -36.99046309
 C          4.3511265751        0.1772423265       -0.0129876674
 C          3.2070491834        0.8494107500       -0.0653421706
 C          1.9012115479        0.2075589773       -0.0130035413
 C          0.7295775690        0.9672976238       -0.0597579017
 C         -0.5039613990        0.3347560463        0.0005858418
 C         -1.7155062693        1.2131340850        0.0579323544
 O         -1.8797873616        2.1528290499       -0.6665435989
 O         -2.5902028029        0.9320080820        1.0433180267
 C         -0.5469628099       -1.0674456352        0.0597809860
 C         -1.7701357370       -1.8602708478       -0.0061734964
 C         -2.8565722064       -1.5213163822       -0.6904250214
 C          0.6905993461       -1.7215082630        0.1212495383
 N          1.8558785924       -1.1223397085        0.0941055437
 H          5.3056779156        0.6723562916       -0.0555403448
 H          4.3483474588       -0.8956122544        0.0741430474
 H          3.1930396293        1.9273212465       -0.1537207071
 H          0.7688356120        2.0440264174       -0.1232890592
 H         -2.3624429937        0.1232251151        1.5210970468
 H         -1.7191335487       -2.8222522506        0.4891609950
 H         -2.9245084360       -0.5980576100       -1.2423342309
 H         -3.7156324431       -2.1678738901       -0.7367149480
 H          0.7241972771       -2.8023703189        0.1856361351
