40
 energy: -56.213520501003 gnorm: 0.000085871349 xtb: 6.4.1 (23d549d)
C         7.99329000050000   -0.66413748830000   -0.46602784790000
C         7.14121102130000    0.10681089810000    0.19979397910000
C         5.68695041460000    0.06622890760000    0.12933968100000
C         4.98421428910000   -0.83595106060000   -0.67151020310000
C         3.60593886650000   -0.83570964190000   -0.69940790070000
C         2.87144459190000    0.07005056840000    0.06531330790000
C         1.40417719820000    0.06986539910000    0.03097450550000
C         0.68971078820000   -1.12668897750000    0.01055001770000
C        -0.68977314600000   -1.12663103070000   -0.01348557080000
C        -1.40420394060000    0.06997255470000   -0.03273881450000
C        -2.87148609000000    0.07008070100000   -0.06634494210000
C        -3.60531683790000   -0.83654427440000    0.69800254060000
C        -4.98359303760000   -0.83727147180000    0.67075140670000
C        -5.68702011100000    0.06528738980000   -0.12905982840000
C        -7.14132793060000    0.10507310720000   -0.19903298610000
C        -7.99280729500000   -0.66154593760000    0.47247205410000
C        -4.94779888070000    0.96883312720000   -0.89569467760000
C        -3.56934011790000    0.97564033070000   -0.86347790600000
C        -0.68955679610000    1.26653279440000   -0.01980163260000
C         0.68958094660000    1.26646983670000    0.01873482640000
C         3.56861244160000    0.97513095490000    0.86360088050000
C         4.94704999820000    0.96891104720000    0.89633471150000
H         9.05748951580000   -0.55594558130000   -0.34451460270000
H         7.67509421090000   -1.42834898310000   -1.15406978870000
H         7.53526637770000    0.85695922140000    0.87546090330000
H         5.52163597100000   -1.54582016200000   -1.28126584310000
H         3.08527421910000   -1.53280246790000   -1.34028355650000
H         1.22377233320000   -2.06566184090000    0.03475211810000
H        -1.22389270900000   -2.06554869350000   -0.03850913700000
H        -3.08409601850000   -1.53403303190000    1.33799207180000
H        -5.52046299330000   -1.54812131850000    1.27984943280000
H        -7.53596462660000    0.85103689150000   -0.87901174270000
H        -7.67399365940000   -1.42094537960000    1.16555308100000
H        -9.05711054530000   -0.55430465360000    0.35103141900000
H        -5.46879617260000    1.67504712410000   -1.52753352170000
H        -3.02231792750000    1.67460401160000   -1.47971899020000
H        -1.22420692120000    2.20548605150000   -0.01917886990000
H         1.22430152550000    2.20538310810000    0.01876211100000
H         3.02103517070000    1.67333389520000    1.48020669280000
H         5.46749214240000    1.67480008180000    1.52899161070000
