  20
        -43.34194633
 C          1.5725017704       -3.0680081016       -0.0418744833
 C          1.2177663480       -1.8983420224       -0.5549210130
 C         -0.0320945401       -1.2009388418       -0.2602735221
 C         -1.2010407150       -1.9245999288       -0.0256991966
 C         -2.4155515601       -1.3001197641        0.1713249276
 C         -2.4816084669        0.0817068129        0.1195632625
 F         -3.6598945783        0.7021851547        0.2901987808
 C         -1.3334062164        0.8223191532       -0.1113290887
 F         -1.4030457522        2.1650872354       -0.1512648996
 C         -0.0952183435        0.2028637770       -0.2843985619
 C          1.0649468452        1.0708733268       -0.4816263046
 C          2.2507682784        0.9192101498        0.0847535056
 F          2.6167990791       -0.0289028771        0.9352304231
 F          3.2693407195        1.7475229545       -0.1124109275
 H          2.5011242947       -3.5397133882       -0.3106116789
 H          0.9677627652       -3.5822750013        0.6854455271
 H          1.8778481021       -1.3947498166       -1.2495582545
 H         -1.1549056927       -3.0017795958       -0.0224533071
 H         -3.3172810862       -1.8628724085        0.3509552369
 H          0.9229997157        1.9566964941       -1.0836816530
  20
        -43.34042567
 C          1.9544587992       -2.1444342112        0.9839195825
 C          1.0972379309       -2.1410918722       -0.0251873564
 C         -0.1020881838       -1.2995658512       -0.0969985429
 C         -1.3044887804       -1.9053696358       -0.4572859740
 C         -2.4996519196       -1.2143513859       -0.4457466432
 C         -2.5029465595        0.1170415622       -0.0693112510
 F         -3.6575260311        0.8013758798       -0.0383177952
 C         -1.3135769667        0.7469071646        0.2634680442
 F         -1.3221690288        2.0500058258        0.5970555104
 C         -0.0977424844        0.0630342678        0.2374722796
 C          1.1094412229        0.8394760421        0.5312124320
 C          2.2282963011        0.7973511997       -0.1708003700
 F          2.4732159739        0.0325754638       -1.2254268969
 F          3.2957988204        1.5401833553        0.0928036144
 H          2.7945309512       -2.8163102638        1.0057701927
 H          1.8444418530       -1.4859565667        1.8297527336
 H          1.2141828773       -2.8436599802       -0.8393855050
 H         -1.2993111706       -2.9491714089       -0.7312495085
 H         -3.4292353327       -1.6879433063       -0.7168037365
 H          1.0508619088        1.5717034210        1.3228782082
