  24
        -46.37239325
 C         -3.7270598987       -2.7078607463        0.1084858095
 C         -3.6003308185       -1.3932990301       -0.0228602613
 C         -2.3527927078       -0.6368210798       -0.0275750253
 C         -2.4064972023        0.7562111074       -0.0528900924
 C         -1.2564411836        1.5383599922       -0.0491594808
 C         -1.3869794259        2.9915068409       -0.0632166178
 C         -0.4181178440        3.8740414673        0.1467642350
 C         -0.0094916874        0.9063212181       -0.0370471683
 C          0.0435229560       -0.4722307195       -0.0190864630
 O          1.2468449286       -1.2119305295       -0.0108202487
 C          2.4088451141       -0.6017783249       -0.0006701187
 F          2.6125269272        0.1981129839        1.0638525533
 F          3.3755814054       -1.5149949237        0.0233931651
 F          2.6438984245        0.1741520756       -1.0763314607
 C         -1.1021594454       -1.2493648675       -0.0117657991
 H         -4.6952621906       -3.1778978793        0.1040169152
 H         -2.8847546441       -3.3665235569        0.2296781077
 H         -4.4915167279       -0.7874741302       -0.1291932021
 H         -3.3711487905        1.2436024388       -0.0670508394
 H         -2.3922916032        3.3485155059       -0.2487283394
 H          0.5980402051        3.5898167321        0.3589768994
 H         -0.6136023666        4.9321618020        0.1225343526
 H          0.8852092112        1.5047846319       -0.0547039457
 H         -0.9939742941       -2.3201097349       -0.0036586636
  24
        -46.37234307
 C         -4.6456070497       -1.5044425758        0.0514428010
 C         -3.3574464850       -1.8213431848        0.0055494305
 C         -2.2311146813       -0.8939082227       -0.0082210999
 C         -2.3844065778        0.4910707219       -0.0380689610
 C         -1.2893687125        1.3477006860       -0.0441859543
 C         -1.5188197084        2.7889504580       -0.0645612423
 C         -0.6179168334        3.7345143956        0.1712472952
 C          0.0004136208        0.8067195382       -0.0356053257
 C          0.1525569142       -0.5637067214       -0.0109415737
 O          1.4039762048       -1.2173716112       -0.0032197657
 C          2.5201467438       -0.5267385649       -0.0079691288
 F          2.6749891724        0.2948978792        1.0481613288
 F          3.5491150521       -1.3689898880        0.0152984281
 F          2.6907346910        0.2544324767       -1.0918635547
 C         -0.9391635536       -1.4156332144        0.0045534574
 H         -5.4064469782       -2.2656286570        0.0593374169
 H         -4.9985199888       -0.4882268889        0.0854829220
 H         -3.0751956665       -2.8661671899       -0.0207228557
 H         -3.3750310545        0.9179292946       -0.0531561304
 H         -2.5407789713        3.0770881936       -0.2769162764
 H          0.4084981637        3.5185264125        0.4129085680
 H         -0.8833003979        4.7771537003        0.1410908626
 H          0.8491989884        1.4685012907       -0.0619479815
 H         -0.7664176260       -2.4795271750        0.0234869379
  24
        -46.37225672
 C         -3.9322843750       -1.9089442072        0.3577440297
 C         -2.6266939543       -1.8665923624        0.1228576711
 C         -1.8003788149       -0.6667293350        0.0392015390
 C         -2.3349600114        0.6137270496       -0.0463413267
 C         -1.5229984134        1.7443694573       -0.1191591864
 C         -2.1502646428        3.0592180808       -0.2042182434
 C         -1.5340474805        4.2337434299       -0.1574142371
 C         -0.1403662338        1.5729078188       -0.1123974086
 C          0.3937578405        0.2986795545       -0.0353744652
 O          1.8050824903        0.2570414604       -0.0425612260
 C          2.4414216030       -0.8900110200        0.0106971934
 F          2.2058712313       -1.6097622928        1.1243679985
 F          2.1780808598       -1.7242536597       -1.0132149529
 F          3.7508803443       -0.6584493521       -0.0184265602
 C         -0.4101170454       -0.8209402475        0.0374894218
 H         -4.4595853354       -2.8457729101        0.4081485850
 H         -4.5258676989       -1.0255346202        0.5189091436
 H         -2.0859801394       -2.7954428791       -0.0071645488
 H         -3.4061374047        0.7417449171       -0.0645295941
 H         -3.2281625629        3.0352806980       -0.3048103222
 H         -0.4679936157        4.3300739241       -0.0460427820
 H         -2.0854482471        5.1557127654       -0.2245157974
 H          0.5354485511        2.4080774901       -0.1759879293
 H          0.0034439309       -1.8151907149        0.0978539781
  24
        -46.37220460
 C         -3.9291785488       -1.6515037233        0.1500973968
 C         -2.6132498186       -1.6461911377        0.3222832034
 C         -1.7206145415       -0.5048679620        0.1459897804
 C         -2.1840128339        0.7988996334        0.0162152277
 C         -1.3082321928        1.8685347697       -0.1559074927
 C         -1.7610235116        3.2496950694       -0.2901110865
 C         -2.9902933769        3.7020761364       -0.0766729871
 C          0.0602416046        1.6090009189       -0.2057491707
 C          0.5245092921        0.3122464569       -0.0669843650
 O          1.9287404790        0.1828118976       -0.1252346226
 C          2.4975525974       -0.9940508529       -0.0026553324
 F          2.2581453071       -1.6115931823        1.1699927077
 F          2.1495584340       -1.8853021991       -0.9504302823
 F          3.8164955036       -0.8468608294       -0.0893358606
 C         -0.3424086060       -0.7457988625        0.1130051507
 H         -4.5071406121       -2.5472309077        0.2978543138
 H         -4.4824584136       -0.7792544327       -0.1529323454
 H         -2.1172091528       -2.5662354025        0.6041376331
 H         -3.2440436717        0.9857939729        0.0509404603
 H         -0.9865410549        3.9486251203       -0.5791697597
 H         -3.8020043581        3.0661983069        0.2321606285
 H         -3.2295915326        4.7445361712       -0.1963453217
 H          0.7749040488        2.4044965971       -0.3416690389
 H          0.0112250292       -1.7590888449        0.2199712855
