  25
        -41.24013405
 C         -4.0844802839        1.4095503455       -0.0800569043
 C         -3.6915202748        0.1409782152       -0.0655027023
 C         -2.3165135971       -0.3338748479        0.0020708693
 C         -2.0633073505       -1.7086522501        0.0374750556
 C         -0.7778832651       -2.2042435725        0.1036202819
 C          0.3254858747       -1.3475166454        0.1383353107
 C          1.6948156512       -1.8449147820        0.2204470040
 C          2.1087675692       -2.9989114900       -0.2889742642
 C          0.0633775225        0.0216650387        0.1081084017
 S          1.3976659816        1.2242412897        0.0838347812
 N          2.2114399167        0.9152640114       -1.3429626351
 O          0.8270844145        2.5289370053       -0.0511174477
 O          2.3201683508        0.9732855551        1.1488429121
 C         -1.2144053619        0.5232763192        0.0350537155
 H         -5.1278910449        1.6691030230       -0.1299176142
 H         -3.3929060846        2.2330623680       -0.0405468429
 H         -4.4370468496       -0.6439418019       -0.1035817437
 H         -2.8958208762       -2.3976846802        0.0184023598
 H         -0.6168321791       -3.2704049499        0.1510620851
 H          2.3851505612       -1.1898749792        0.7342716977
 H          1.4516657398       -3.6595392218       -0.8311263846
 H          3.1314225038       -3.3202045120       -0.1923145251
 H          1.6731591355        1.1397879916       -2.1619579859
 H          2.6440467824        0.0078127413       -1.3884356040
 H         -1.3243516539        1.5948260813        0.0058027585
