27
 energy: -49.342240299095 gnorm: 0.000033862870 xtb: 6.5.0 (unknown)
C           -4.08155198500000        1.44328842240000       -0.05856628950000
C           -2.87117116270000        1.49996699290000       -0.59647629630000
C           -1.79756999520000        0.53476905640000       -0.35482031880000
C           -2.08621835140000       -0.80644957940000       -0.11989369610000
C           -1.06043732640000       -1.72056325300000        0.03560258780000
Cl          -1.44050828430000       -3.38195934310000        0.32371050200000
C            0.26398235690000       -1.33479865680000       -0.05733334030000
C            0.58125806710000        0.00407054320000       -0.28191774000000
C            1.94771398670000        0.48563540940000       -0.40320072700000
C            3.07487396970000       -0.17044350450000       -0.17714690990000
F            3.22605597010000       -1.42788405550000        0.22038807080000
F            4.27720020410000        0.38315085530000       -0.31750162940000
C           -0.45744725490000        0.94375627950000       -0.41446110730000
O           -0.13227028590000        2.26199376570000       -0.63501287300000
C           -0.43664615630000        3.16243476100000        0.42291241930000
C            0.45480859950000        2.95304982750000        1.64197025250000
H           -4.83472873770000        2.17665604560000       -0.28933268500000
H           -4.36141777860000        0.67616892300000        0.64385736180000
H           -2.61293726770000        2.30349888720000       -1.27495549390000
H           -3.11216029910000       -1.13607979230000       -0.09045943340000
H            1.04007581420000       -2.07451061430000        0.04154396000000
H            2.05110762660000        1.51440017590000       -0.71571060240000
H           -1.49008201170000        3.06851381400000        0.71477559160000
H           -0.27286089210000        4.15367807350000       -0.00645865920000
H            0.30663162800000        1.95566668090000        2.05159085000000
H            0.20432559800000        3.68550797230000        2.40413320320000
H            1.50226538550000        3.06808958030000        1.37495915170000
