  18
        -26.45007906
 C          2.5197185911        0.7133061156       -0.0001213706
 C          1.2223075333       -0.0363470592        0.0001473926
 C          0.0000016016        0.6234310665        0.0000270250
 F          0.0000066591        1.9816291712        0.0000503674
 C         -1.2223074235       -0.0363401319       -0.0000129928
 C         -2.5197171176        0.7133157169       -0.0000198978
 C         -1.1986941446       -1.4253935015       -0.0000708258
 C         -0.0000055267       -2.1145808603       -0.0000265649
 C          1.1986873148       -1.4253997030        0.0001103968
 H          2.3502136757        1.7862950993        0.0071952068
 H          3.1008032152        0.4567392490       -0.8849866296
 H          3.1079207637        0.4454660855        0.8765894291
 H         -2.3501966793        1.7863266415        0.0007664853
 H         -3.1047288494        0.4504919601        0.8803699492
 H         -3.1040101185        0.4517070619       -0.8812552515
 H         -2.1347971428       -1.9639024628       -0.0001353084
 H         -0.0000080031       -3.1942387012       -0.0000795810
 H          2.1347869161       -1.9639144705        0.0001911056
