  25
        -45.72851097
 C         -2.2668168411       -3.4956487096       -0.4278556497
 C         -2.5638902692       -2.2169909726       -0.2270084579
 C         -1.6237363341       -1.1136990869       -0.0907103055
 C         -2.1117603199        0.1807901342        0.0963751307
 C         -1.2843505035        1.2813878622        0.2368332244
 C         -1.8542705092        2.6086065844        0.4784443322
 C         -2.9885280795        3.0503237492       -0.0471267954
 C          0.1175712709        1.1087988473        0.1779680182
 N          0.9561026242        2.1756108460        0.3183600876
 C          0.6079150024       -0.1971557221        0.0043942099
 C          2.0874107192       -0.4200020852       -0.0525257086
 F          2.6795175125        0.2611270892       -1.0662829729
 F          2.7299313248       -0.0083835726        1.0630989268
 F          2.4329089969       -1.6996570647       -0.2253761067
 C         -0.2434325201       -1.2823531715       -0.1263511816
 H         -3.0392584352       -4.2398101586       -0.5166293688
 H         -1.2561053029       -3.8553997806       -0.5124505214
 H         -3.6049030022       -1.9266758441       -0.1540029784
 H         -3.1795785897        0.3319006557        0.1581572721
 H         -1.2978802514        3.2459445109        1.1550824491
 H         -3.5648157247        2.4595597648       -0.7390416467
 H         -3.3760689794        4.0275046579        0.1843503010
 H          0.5718624961        3.0944461454        0.1902638251
 H          1.9328489058        2.0759970407        0.1079049879
 H          0.1812266734       -2.2640869623       -0.2569914354
