  24
        -45.67044927
 C         -6.3059054723        0.7567167270        0.0372000893
 C         -5.3358189706       -0.1547085869        0.0078109976
 C         -3.9273895622        0.1329006051        0.0075308179
 C         -3.2694488793        1.3397101518        0.0346939000
 C         -1.8771732333        1.2180518849        0.0255414867
 C         -1.4422269078       -0.0870848056       -0.0088875735
 C         -0.1029672610       -0.5686032729       -0.0248585674
 C          0.3303880725       -1.8741849228       -0.0659914850
 C          1.7222661230       -1.9927012029       -0.0685613352
 C          2.3746382572       -0.7823010098       -0.0296153178
 C          3.7939294600       -0.5923760860       -0.0210911949
 C          4.4315313112        0.5731727056        0.0210300024
 F          3.8742422506        1.7777382297        0.0626586388
 F          5.7564552545        0.6914405353        0.0283822481
 S          1.2403064167        0.5355015050        0.0109409457
 S         -2.7911305216       -1.1838548516       -0.0312247512
 H         -7.3420741242        0.4686474590        0.0364471896
 H         -6.1007687171        1.8126544762        0.0632637552
 H         -5.5871959327       -1.2071761293       -0.0181174121
 H         -3.7782272420        2.2859116053        0.0604418269
 H         -1.1971269068        2.0516723647        0.0432261527
 H         -0.3477408722       -2.7085258103       -0.0927485299
 H          2.2424554038       -2.9334144469       -0.0977165097
 H          4.4059378648       -1.4812471648       -0.0503744495
