  21
        -39.41674193
 C         -3.2209661732       -2.4056106739       -0.0668383746
 C         -3.2908200222       -1.0837084093        0.0395577969
 C         -2.1709644341       -0.1505639525        0.0260977014
 C         -2.4377007231        1.2224012432        0.0065974966
 C         -1.4105137504        2.1401040392       -0.0097578453
 C         -0.0849686623        1.7073175120       -0.0035910452
 C          0.9407837587        2.6774077085       -0.0198783549
 N          1.7581731638        3.4823022385       -0.0332988986
 C          0.2139523302        0.3292727720        0.0196102141
 C          1.6122096042       -0.0714006328        0.0287752848
 C          2.1137284484       -1.2982448824        0.0061599751
 F          1.4545841582       -2.4498983162       -0.0306064497
 F          3.4168532622       -1.5502061916        0.0156837802
 C         -0.8426079045       -0.5739239541        0.0357925119
 H         -4.1099324585       -3.0121080714       -0.0500363302
 H         -2.2919960310       -2.9376275722       -0.1795206281
 H         -4.2623852953       -0.6149895299        0.1364410294
 H         -3.4615811645        1.5661941817        0.0017807712
 H         -1.6187607583        3.1998351625       -0.0261069466
 H          2.3431226414        0.7252217398        0.0517433533
 H         -0.6345358494       -1.6291849817        0.0646296150
  21
        -39.41665354
 C         -4.3535449082       -1.3594281285        0.0557197035
 C         -3.0336661118       -1.4818624974       -0.0247574307
 C         -2.0595773393       -0.3976409588       -0.0185652918
 C         -2.4248143837        0.9521014152       -0.0200819055
 C         -1.4622795255        1.9369805031       -0.0130669602
 C         -0.1082166533        1.6013899937       -0.0042235670
 C          0.8440253374        2.6438107937        0.0026875308
 N          1.6008303924        3.5059826563        0.0081146294
 C          0.2899564622        0.2492364156       -0.0044992987
 C          1.7127871912       -0.0508476060        0.0036530582
 C          2.2998495752       -1.2394412079        0.0050645716
 F          1.7241299231       -2.4350542765       -0.0012400479
 F          3.6176744923       -1.3976482166        0.0132763773
 C         -0.7032371106       -0.7240688491       -0.0135290489
 H         -4.9939093341       -2.2243283752        0.0459275139
 H         -4.8511707380       -0.4084236824        0.1382034899
 H         -2.6017208622       -2.4722394751       -0.0959372462
 H         -3.4657022069        1.2323648497       -0.0313522713
 H         -1.7443106502        2.9797314242       -0.0152080097
 H          2.3851496027        0.7960702272        0.0097340525
 H         -0.4287947618       -1.7666765418       -0.0144580415
  21
        -39.41289993
 C         -4.7501802543       -1.1237476487        0.0445095333
 C         -3.5026724779       -1.4003140668       -0.3169880843
 C         -2.3446658477       -0.5271410135       -0.1747972040
 C         -2.4367939490        0.7940696877        0.2741624748
 C         -1.3124987634        1.5827517449        0.3722021691
 C         -0.0548402647        1.0708629766        0.0453496732
 C          1.0571766273        1.9420626114        0.0720623407
 N          1.9316923165        2.6833041593        0.0593812552
 C          0.0664385564       -0.2613248492       -0.3812392015
 C          1.3602152636       -0.8597461638       -0.7136959449
 C          2.4629926360       -0.7380827408        0.0066529978
 F          2.5900771087       -0.1022185475        1.1598647214
 F          3.6163428587       -1.3121365767       -0.3134142600
 C         -1.0849469448       -1.0268217090       -0.5046233231
 H         -5.5424860108       -1.8379710978       -0.0982761573
 H         -5.0358723879       -0.1899732552        0.4972874156
 H         -3.2856915336       -2.3659388476       -0.7567397960
 H         -3.3966317259        1.2118766648        0.5317823595
 H         -1.3901852248        2.6100919700        0.6964047723
 H          1.4141573594       -1.4868969681       -1.5907996655
 H         -0.9947036368       -2.0473063128       -0.8493033335
