  21
        -39.41674193
 C         -3.2209661732       -2.4056106739       -0.0668383746
 C         -3.2908200222       -1.0837084093        0.0395577969
 C         -2.1709644341       -0.1505639525        0.0260977014
 C         -2.4377007231        1.2224012432        0.0065974966
 C         -1.4105137504        2.1401040392       -0.0097578453
 C         -0.0849686623        1.7073175120       -0.0035910452
 C          0.9407837587        2.6774077085       -0.0198783549
 N          1.7581731638        3.4823022385       -0.0332988986
 C          0.2139523302        0.3292727720        0.0196102141
 C          1.6122096042       -0.0714006328        0.0287752848
 C          2.1137284484       -1.2982448824        0.0061599751
 F          1.4545841582       -2.4498983162       -0.0306064497
 F          3.4168532622       -1.5502061916        0.0156837802
 C         -0.8426079045       -0.5739239541        0.0357925119
 H         -4.1099324585       -3.0121080714       -0.0500363302
 H         -2.2919960310       -2.9376275722       -0.1795206281
 H         -4.2623852953       -0.6149895299        0.1364410294
 H         -3.4615811645        1.5661941817        0.0017807712
 H         -1.6187607583        3.1998351625       -0.0261069466
 H          2.3431226414        0.7252217398        0.0517433533
 H         -0.6345358494       -1.6291849817        0.0646296150
