  23
        -38.06682326
 C         -4.5229640966       -1.3175399053       -0.0388335127
 C         -3.8246081144       -0.1880551407       -0.0610655472
 C         -2.3757917287       -0.0593674826        0.0095171107
 C         -1.5157753619       -1.1467142611        0.1669800371
 C         -0.1526911978       -0.9597992896        0.2262961348
 C          0.4121073615        0.3141379819        0.1312235928
 C          1.8517244768        0.5156680673        0.2108965903
 C          2.8057249932       -0.3776774814       -0.0030279243
 F          2.6762886699       -1.6495951731       -0.3636578282
 F          4.1048167229       -0.0927345821        0.1046922552
 C         -0.4397004915        1.4211676617       -0.0230930707
 C          0.0995350743        2.8157516122       -0.1415967510
 C         -1.8058804109        1.2112840103       -0.0809519222
 H         -5.5977993011       -1.3110229922       -0.0978967056
 H         -4.0623652415       -2.2874193645        0.0360335498
 H         -4.3553699944        0.7530166823       -0.1433353140
 H         -1.9130270788       -2.1457646611        0.2492228217
 H          0.4859182596       -1.8175226138        0.3632964615
 H          2.2059916579        1.5026207494        0.4658446619
 H          0.6056663555        3.1145080809        0.7763368814
 H         -0.7087415489        3.5190205597       -0.3248824136
 H          0.8108350568        2.8887858888       -0.9627909930
 H         -2.4588720583        2.0648481487       -0.2036437164
