  23
        -38.06682326
 C         -4.5229640966       -1.3175399053       -0.0388335127
 C         -3.8246081144       -0.1880551407       -0.0610655472
 C         -2.3757917287       -0.0593674826        0.0095171107
 C         -1.5157753619       -1.1467142611        0.1669800371
 C         -0.1526911978       -0.9597992896        0.2262961348
 C          0.4121073615        0.3141379819        0.1312235928
 C          1.8517244768        0.5156680673        0.2108965903
 C          2.8057249932       -0.3776774814       -0.0030279243
 F          2.6762886699       -1.6495951731       -0.3636578282
 F          4.1048167229       -0.0927345821        0.1046922552
 C         -0.4397004915        1.4211676617       -0.0230930707
 C          0.0995350743        2.8157516122       -0.1415967510
 C         -1.8058804109        1.2112840103       -0.0809519222
 H         -5.5977993011       -1.3110229922       -0.0978967056
 H         -4.0623652415       -2.2874193645        0.0360335498
 H         -4.3553699944        0.7530166823       -0.1433353140
 H         -1.9130270788       -2.1457646611        0.2492228217
 H          0.4859182596       -1.8175226138        0.3632964615
 H          2.2059916579        1.5026207494        0.4658446619
 H          0.6056663555        3.1145080809        0.7763368814
 H         -0.7087415489        3.5190205597       -0.3248824136
 H          0.8108350568        2.8887858888       -0.9627909930
 H         -2.4588720583        2.0648481487       -0.2036437164
  23
        -38.06676532
 C         -4.7707450635        0.0705716596       -0.1697262021
 C         -3.7438137101       -0.7526855287        0.0081950065
 C         -2.3328638287       -0.3945648620        0.0502680727
 C         -1.3822632876       -1.4015436592        0.2247012515
 C         -0.0377522410       -1.1055051487        0.2693988827
 C          0.4153745469        0.2086686395        0.1425008372
 C          1.8334037816        0.5329990703        0.2069981393
 C          2.8564235585       -0.2796911164       -0.0090265737
 F          2.8286660073       -1.5608221083       -0.3592005923
 F          4.1284189940        0.1121645983        0.0837556577
 C         -0.5288716293        1.2362019732       -0.0295065070
 C         -0.1059391711        2.6673823963       -0.1821989015
 C         -1.8738522297        0.9168646861       -0.0737725141
 H         -5.7830437443       -0.2951024366       -0.1858444401
 H         -4.6535645103        1.1317845192       -0.3068695070
 H         -3.9393174674       -1.8105154205        0.1371220592
 H         -1.7053268156       -2.4272972641        0.3283960252
 H          0.6703660426       -1.9044241279        0.4193699957
 H          2.1053431743        1.5484755305        0.4507003243
 H          0.3766549235        3.0273798968        0.7263914796
 H         -0.9692520424        3.2982311582       -0.3775028797
 H          0.5947817911        2.7794209819       -1.0080393003
 H         -2.5874167334        1.7153588380       -0.2093026796
  23
        -38.06469218
 C         -4.7334794351       -1.0207706131       -0.0555493207
 C         -3.8327519297       -0.0670891500       -0.2611227353
 C         -2.4070667649       -0.1405090823        0.0303100968
 C         -1.8179039327       -1.2145435900        0.7003049730
 C         -0.4628934563       -1.2226905260        0.9397057260
 C          0.3616860428       -0.1816683625        0.5072658507
 C          1.7927813257       -0.3044426070        0.7927557472
 C          2.7909298832       -0.0806224115       -0.0433922933
 F          2.7111637116        0.2938538402       -1.3147015322
 F          4.0751058545       -0.2378634590        0.2811271346
 C         -0.2143972868        0.9207676726       -0.1343383106
 C          0.5845484186        2.1173587432       -0.5499265784
 C         -1.5835432693        0.9144712559       -0.3572276860
 H         -5.7695820878       -0.8750933746       -0.3086694986
 H         -4.4828346290       -1.9798590555        0.3640237325
 H         -4.1539313537        0.8705983436       -0.6986505055
 H         -2.4215783641       -2.0396036656        1.0433126811
 H         -0.0163129406       -2.0590700061        1.4581907296
 H          2.0683478377       -0.6767963532        1.7692503542
 H          1.4214011512        2.2865095149        0.1244028478
 H         -0.0440333095        3.0048817963       -0.5573206027
 H          0.9825390355        1.9797509289       -1.5547202327
 H         -2.0283410426        1.7668974840       -0.8524620680
  23
        -38.06462828
 C         -4.6069810413        0.1435189348       -0.7400549208
 C         -3.8281607819       -0.5668106092        0.0672145953
 C         -2.3887910201       -0.4185960590        0.2402511748
 C         -1.6944041169       -1.3667801433        0.9947936267
 C         -0.3332118569       -1.2609052463        1.1688681642
 C          0.3917945808       -0.2189295668        0.5882448422
 C          1.8387773168       -0.2088075971        0.8141641917
 C          2.7816347222       -0.0097173270       -0.0896257158
 F          2.6211908441        0.2162641248       -1.3880356291
 F          4.0863855400       -0.0406252866        0.1858147058
 C         -0.2918094830        0.7644686471       -0.1375467666
 C          0.4004465187        1.9626099188       -0.7111905643
 C         -1.6639464311        0.6420651646       -0.2974306000
 H         -5.6649091212       -0.0447132803       -0.8046521098
 H         -4.2302180214        0.9299814541       -1.3712102483
 H         -4.2717232424       -1.3564505635        0.6618675772
 H         -2.2307183705       -2.1903289210        1.4436045225
 H          0.1936307573       -2.0041073613        1.7499513300
 H          2.1818489512       -0.4512545218        1.8099828448
 H          1.2482734588        2.2598740027       -0.0975994956
 H         -0.2912902300        2.7989907570       -0.7807197992
 H          0.7680277258        1.7469070121       -1.7138398017
 H         -2.1825914137        1.4102842950       -0.8506112398
