  29
        -51.51824715
 C         -1.6096501979        3.8961816631       -0.0258117815
 C         -0.4686974746        3.2181021000       -0.0392881014
 C         -0.3146996775        1.7671214144        0.0096596065
 C         -1.4027609708        0.8960489093       -0.0240336282
 C         -1.2283366841       -0.4857191240        0.0261827234
 C         -2.3329573187       -1.4336863202       -0.0051626130
 C         -3.6324640197       -1.1851017085       -0.0658857180
 F         -4.2386851964       -0.0044977883       -0.1134548529
 F         -4.5565681966       -2.1420455529       -0.0881623449
 C          0.0661664073       -0.9966893465        0.1094135816
 C          1.1606871543       -0.1420278210        0.1420299101
 C          2.5151429694       -0.7476510328        0.2284819550
 O          2.7183749072       -1.9372849978        0.2534538417
 O          3.4829896572        0.1747071898        0.2877587085
 C          4.8261123081       -0.3033788408        0.3578277987
 C          5.3697322803       -0.6406530871       -1.0232296725
 C          0.9711097641        1.2331424344        0.0907034075
 H         -1.6178651173        4.9719024251       -0.0628230820
 H         -2.5743653873        3.4215457803        0.0253507598
 H          0.4658606895        3.7636327075       -0.0824461101
 H         -2.3952882699        1.3059959937       -0.0956694392
 H         -2.0660191550       -2.4800312666        0.0271782893
 H          0.2421536192       -2.0610417715        0.1491977898
 H          4.8538757425       -1.1889969357        1.0013089802
 H          5.3924037375        0.5096081950        0.8172477754
 H          4.7997667906       -1.4592421610       -1.4557807445
 H          6.4103099454       -0.9410231505       -0.9413809986
 H          5.2989988753        0.2246674227       -1.6780947598
 H          1.8290237103        1.8871180219        0.1162198186
  29
        -51.51815996
 C         -2.0146618241        3.9457083265       -0.0071707172
 C         -0.8038285990        3.4167473627        0.1188844533
 C         -0.4670143866        1.9965652469        0.1086340146
 C         -1.4328363869        0.9936706486        0.0386797943
 C         -1.0799863444       -0.3546555781        0.0286759720
 C         -2.0554356280       -1.4333683717       -0.0443601517
 C         -3.3748158778       -1.3510833598       -0.1274830801
 F         -4.1272114998       -0.2580187559       -0.1645266682
 F         -4.1667211612       -2.4189577679       -0.1896130384
 C          0.2695076124       -0.7035916826        0.0927722928
 C          1.2425201372        0.2840940265        0.1656913577
 C          2.6900348095       -0.0448824217        0.2372681988
 O          3.5662200331        0.7835709106        0.2861291535
 O          2.9120072121       -1.3651967961        0.2536963977
 C          4.2740165500       -1.7890365222        0.3080562715
 C          4.9120041946       -1.7940203101       -1.0737567326
 C          0.8744151496        1.6242757876        0.1734871252
 H         -2.1602202940        5.0120287591        0.0107780917
 H         -2.9042900305        3.3533467984       -0.1354409342
 H          0.0481828847        4.0742844421        0.2370572838
 H         -2.4713685777        1.2727742905       -0.0043231482
 H         -1.6598915638       -2.4388368514       -0.0310928895
 H          0.5647637368       -1.7408674673        0.0872920034
 H          4.2404590770       -2.7953730487        0.7309621839
 H          4.8266354700       -1.1205758230        0.9765401122
 H          4.3375809398       -2.4202914506       -1.7523304424
 H          5.9251670854       -2.1794545350       -1.0052228887
 H          4.9461233197       -0.7819821669       -1.4695171382
 H          1.6531177880        2.3705264698        0.2305275804
  29
        -51.51793473
 C         -0.0310953234        4.8625779774        0.1324813616
 C         -0.9364025287        3.8924729175        0.1041273084
 C         -0.6679362974        2.4581858014        0.0960634693
 C         -1.7404570083        1.5712444025        0.0247982865
 C         -1.5589021212        0.1879057716        0.0098581339
 C         -2.7447235055       -0.6528170721       -0.0702027158
 C         -2.8152482864       -1.9744270948       -0.1266092142
 F         -1.8191355563       -2.8494850961       -0.1244730716
 F         -3.9685933730       -2.6356828944       -0.1995005764
 C         -0.2628595383       -0.3211379137        0.0731626004
 C          0.8162107266        0.5519663195        0.1480178023
 C          2.2162287107        0.0537450006        0.2185794818
 O          3.1835326897        0.7757455776        0.2488500136
 O          2.2803377066       -1.2806031076        0.2583423599
 C          3.5809842563       -1.8657762763        0.3113819063
 C          4.1958762680       -1.9801327950       -1.0761654879
 C          0.6184510016        1.9268702895        0.1575651487
 H         -0.3237751027        5.8984286630        0.1350978060
 H          1.0277144833        4.6715285781        0.1526825892
 H         -1.9875221358        4.1532608079        0.0812115247
 H         -2.7452172025        1.9678270535       -0.0226054331
 H         -3.6972338275       -0.1429229232       -0.0892846034
 H         -0.0762556168       -1.3811263298        0.0669671766
 H          3.4295383832       -2.8506330827        0.7580403929
 H          4.2187912998       -1.2545528610        0.9586097126
 H          3.5393360221       -2.5460195168       -1.7327923733
 H          5.1546870925       -2.4860478002       -1.0089684897
 H          4.3488733702       -0.9892051578       -1.4966556796
 H          1.4875426812        2.5622879774        0.2168229635
  29
        -51.51772613
 C         -1.6493893493        4.6740547643        0.1731714845
 C         -0.5394465943        3.9528486664        0.0772371566
 C         -0.4446641735        2.4964476768        0.0701537466
 C         -1.5587267108        1.6642759799       -0.0103284487
 C         -1.4396176676        0.2744164888       -0.0125776153
 C         -2.6629086399       -0.5102791623       -0.1018415206
 C         -2.7976373391       -1.8278919679       -0.1262115747
 F         -1.8473767940       -2.7510128469       -0.0754573824
 F         -3.9807922448       -2.4327880014       -0.2107294127
 C         -0.1704822889       -0.2979184119        0.0684444828
 C          0.9498741609        0.5201703880        0.1455775237
 C          2.3234033489       -0.0445499736        0.2293873270
 O          3.3233412837        0.6299338553        0.2818720626
 O          2.3234186822       -1.3809904327        0.2519201963
 C          3.5941055487       -2.0276834441        0.3155132657
 C          4.2292223734       -2.1431133359       -1.0628224231
 C          0.8141620509        1.9030706289        0.1425407446
 H         -1.6168751150        5.7498200689        0.1748251223
 H         -2.6284100148        4.2348171056        0.2606999620
 H          0.4140723165        4.4608703530        0.0092234216
 H         -2.5435170062        2.0999116791       -0.0811582910
 H         -3.5888563743        0.0440627448       -0.1560994716
 H         -0.0370622015       -1.3659239871        0.0704395643
 H          3.3881721549       -3.0129943381        0.7387292157
 H          4.2476203277       -1.4604314400        0.9866735673
 H          3.5591363550       -2.6632083692       -1.7432316114
 H          5.1613069921       -2.6958587720       -0.9889864760
 H          4.4374558802       -1.1523012672       -1.4591407794
 H          1.7074545494        2.5071681025        0.2025260898
  29
        -51.51752303
 C          0.2097257518        4.0631584890       -0.1171874312
 C         -0.6999087069        3.0966912564       -0.1235732073
 C         -0.4437982282        1.6606977980       -0.0658433088
 C         -1.5343180514        0.7914327873       -0.0321937220
 C         -1.3659368352       -0.5913937612        0.0252262510
 C         -2.4733417965       -1.5353610607        0.0632012099
 C         -3.7734391583       -1.2825506777        0.0513254080
 F         -4.3769822289       -0.1010084093        0.0014789427
 F         -4.7006846583       -2.2359691154        0.0900122780
 C         -0.0703158892       -1.1040028191        0.0474553295
 C          1.0259622258       -0.2507179515        0.0123069979
 C          2.3815844517       -0.8589466719        0.0370519601
 O          2.5885126717       -2.0475082601        0.0880297009
 O          3.3564446806        0.0546631741       -0.0039683391
 C          4.6926515149       -0.4487475704        0.0148707738
 C          5.6478415204        0.7255654486       -0.0812453079
 C          0.8429195445        1.1246504021       -0.0442114454
 H         -0.0781761047        5.0993345714       -0.1615574388
 H          1.2676060785        3.8710701966       -0.0662871887
 H         -1.7484571799        3.3628766240       -0.1719322537
 H         -2.5266361332        1.2133642808       -0.0505282482
 H         -2.2080476142       -2.5816951928        0.1070535453
 H          0.1067139473       -2.1679856631        0.0913839732
 H          4.8212833918       -1.1399967153       -0.8257564493
 H          4.8438965961       -1.0128859057        0.9422554379
 H          5.4753328755        1.2744325306       -1.0032305935
 H          6.6718836742        0.3642560105       -0.0695266439
 H          5.4992684524        1.3993696607        0.7583677533
 H          1.7080970904        1.7655788341       -0.0730906600
  29
        -51.51708859
 C          0.4678376652        4.5695653357        0.0514833536
 C         -0.5484385002        3.7202045627        0.1362660818
 C         -0.4735317204        2.2646114003        0.0590129155
 C         -1.6556697295        1.5281302275        0.1060096366
 C         -1.6647060005        0.1348022027        0.0356093495
 C         -2.9521431538       -0.5416017364        0.0921868305
 C         -3.2009678425       -1.8421609879        0.0460303025
 F         -2.3368159054       -2.8388636658       -0.0624039977
 F         -4.4332178744       -2.3430541049        0.1074851612
 C         -0.4485852304       -0.5339445512       -0.0837461220
 C          0.7396968271        0.1876222127       -0.1297224260
 C          2.0097311772       -0.5764554957       -0.2545585877
 O          2.0689582062       -1.7794248217       -0.3177553311
 O          3.0828389734        0.2242380307       -0.3003972976
 C          4.3560667049       -0.4127922786       -0.4038949445
 C          4.8612465136       -0.8736162894        0.9558722884
 C          0.7318438427        1.5743528782       -0.0586642126
 H          0.3131112970        5.6326430099        0.1184589500
 H          1.4860115077        4.2502718347       -0.0888670088
 H         -1.5492684184        4.1114913428        0.2720172097
 H         -2.5958460693        2.0539742804        0.1987688410
 H         -3.8249405352        0.0888584606        0.1837880676
 H         -0.3910727648       -1.6085699175       -0.1424546071
 H          5.0160835065        0.3430093783       -0.8351299315
 H          4.2707714137       -1.2668865065       -1.0838339701
 H          4.9007361908       -0.0353742271        1.6476254605
 H          5.8565641101       -1.2954764508        0.8503735621
 H          4.1971498399       -1.6342247788        1.3588827267
 H          1.6689816373        2.1040145550       -0.0935623512
  29
        -51.51624115
 C         -1.0337368225        4.5537478515       -0.1487022420
 C         -0.0691581231        3.6558405062        0.0083057620
 C         -0.2217681328        2.2041122449        0.0199085967
 C         -1.4644396357        1.5750944417        0.0346641622
 C         -1.5855533366        0.1855442269        0.0415879640
 C         -2.9275175170       -0.3783476810        0.0564648813
 C         -3.2849630744       -1.6539416894        0.0317916210
 F         -2.5065175740       -2.7233405423       -0.0126214869
 F         -4.5575116495       -2.0459322698        0.0471292037
 C         -0.4276675768       -0.5901467186        0.0365831507
 C          0.8196284582        0.0237349769        0.0264860360
 C          2.0242904378       -0.8475089376        0.0253738106
 O          1.9893677822       -2.0531791205        0.0556005651
 O          3.1632238088       -0.1470739892       -0.0153146778
 C          4.3705041527       -0.9096197591       -0.0243780949
 C          5.5389083426        0.0454229474       -0.1780549859
 C          0.9236507967        1.4088192518        0.0205401823
 H         -0.8193210299        5.6084747962       -0.1476433012
 H         -2.0666239984        4.2858365143       -0.2906995334
 H          0.9511283436        3.9975733305        0.1299356136
 H         -2.3622872791        2.1736266770        0.0477879754
 H         -3.7466514669        0.3256831597        0.0883879591
 H         -0.4617108759       -1.6673285491        0.0440421207
 H          4.3280101356       -1.6281024174       -0.8507511159
 H          4.4370408428       -1.4753700793        0.9119636779
 H          5.4493669076        0.6004852691       -1.1081178625
 H          6.4690033420       -0.5151461285       -0.1872435039
 H          5.5575064159        0.7510963674        0.6482125547
 H          1.9008709514        1.8662804849        0.0132147741
