  38
        -62.83874043
 F         -5.7693599626        0.7997102361        0.9733823321
 C         -4.8237195512        0.0305540512        0.4339615033
 F         -5.4030413904       -1.0145316256       -0.1447111430
 C         -3.5331531903        0.3201226296        0.5003144027
 C         -2.4074764564       -0.4251164349       -0.0427417755
 C         -1.1316953356        0.0943255401        0.1654648276
 C          0.0001022798       -0.5515231512       -0.3246934579
 N          1.2689304954       -0.0099292780       -0.1148817676
 C          2.3686738321       -0.8534773574        0.0920706540
 C          3.6140025416       -0.5332873826       -0.4470106769
 C          4.6976967755       -1.3632342202       -0.2349538854
 C          4.5577944827       -2.5246444722        0.5069479053
 C          3.3218072727       -2.8486237784        1.0419253931
 C          2.2340998901       -2.0206576411        0.8429136771
 C          1.4505433821        1.3794196246       -0.1093214419
 C          0.7434175303        2.1899560999       -0.9968521505
 C          0.9258003969        3.5591870401       -0.9845340232
 C          1.8180698479        4.1406592541       -0.0986537307
 C          2.5272362762        3.3391845882        0.7809062091
 C          2.3453255763        1.9698141528        0.7823450387
 C         -0.1569720156       -1.7471643466       -1.0285794093
 C         -1.4199222864       -2.2705276572       -1.2258691439
 C         -2.5441958412       -1.6237291931       -0.7456010204
 H         -3.2958764176        1.2333141296        1.0272289746
 H         -1.0137006656        1.0142280019        0.7195003042
 H          3.7231019585        0.3674749947       -1.0331472026
 H          5.6565476191       -1.1048327374       -0.6596303589
 H          5.4060588712       -3.1724282291        0.6675742850
 H          3.2047014538       -3.7489093196        1.6269962194
 H          1.2738570156       -2.2700417011        1.2703798987
 H          0.0555320430        1.7380487720       -1.6966004066
 H          0.3734614255        4.1754088095       -1.6786388515
 H          1.9603489037        5.2105536646       -0.0945428666
 H          3.2220624229        3.7840292059        1.4779071950
 H          2.8929545644        1.3474963137        1.4748895835
 H          0.7121074799       -2.2541221078       -1.4199847075
 H         -1.5309597943       -3.1945270533       -1.7733415163
 H         -3.5167377911       -2.0515610400       -0.9193728047
