  21
        -34.51946091
 C         -2.9056628433        2.6361624937       -0.2579719131
 C         -2.6675540754        1.4219113209        0.2182339252
 C         -1.3937972878        0.7133091344        0.0803804197
 C         -0.2126393333        1.4121659805        0.1516855007
 C          1.0011487438        0.7161565563        0.0726879353
 N          2.2373012156        1.2150715312        0.1234331651
 S          3.2834350061       -0.0002172603       -0.0006845698
 N          2.2368924426       -1.2152302019       -0.1237473509
 C          1.0008886258       -0.7160105448       -0.0717563577
 C         -0.2130414163       -1.4118000695       -0.1499761867
 C         -1.3941296271       -0.7128167833       -0.0776695949
 C         -2.6683444266       -1.4203372682       -0.2155287569
 C         -2.9055467733       -2.6379188519        0.2527130389
 H         -3.8560048858        3.1220908724       -0.1178873571
 H         -2.1675040493        3.1827322362       -0.8209072492
 H         -3.4447196906        0.8906976582        0.7524459783
 H         -0.2020855972        2.4806843794        0.2948113527
 H         -0.2025329679       -2.4802371388       -0.2935896808
 H         -3.4472879302       -0.8851271904       -0.7430818248
 H         -2.1659272171       -3.1893476529        0.8089135028
 H         -3.8566583507       -3.1221726360        0.1120932852
