27
 energy: -49.335910178101 gnorm: 0.000051306035 xtb: 6.5.0 (unknown)
C           -3.30813877320000       -1.18311780740000        1.50115349850000
C           -2.58541718340000       -1.25529322690000        0.39518454810000
C           -1.52846889210000       -0.27249878600000        0.07421860240000
C           -1.97093362880000        1.03706905500000       -0.10228112780000
C           -1.09172375860000        2.05732472660000       -0.40601225410000
Cl          -1.68535446660000        3.66243366280000       -0.65297808680000
C            0.26158760580000        1.79891800400000       -0.50859358820000
C            0.73490948150000        0.51133353530000       -0.29673676140000
C            2.17792245060000        0.29011010290000       -0.39045686500000
C            2.91659793960000       -0.46563183840000        0.40438585850000
F            2.53894854980000       -1.13700981150000        1.47851292260000
F            4.23315702300000       -0.60944970650000        0.24686662870000
C           -0.15696898450000       -0.55130763940000       -0.03138413910000
O            0.45505906920000       -1.74879976920000        0.13622700650000
C           -0.22688199250000       -2.98043081040000        0.02237961970000
C           -0.56241363740000       -3.31587525880000       -1.42745913770000
H           -4.10954028260000       -1.87335212360000        1.70208169250000
H           -3.10825901370000       -0.44177544550000        2.25671270060000
H           -2.81341468420000       -2.00172403910000       -0.35511233130000
H           -3.02607836750000        1.24287455210000       -0.01140713470000
H            0.95436828610000        2.59416596310000       -0.73312556550000
H            2.70620195090000        0.82357009060000       -1.16682334720000
H           -1.12236318620000       -2.99015956050000        0.65198764630000
H            0.48462980090000       -3.71022748850000        0.41882231190000
H           -1.19063084360000       -2.54474047300000       -1.86826397370000
H           -1.08277754210000       -4.26843451930000       -1.47476676010000
H            0.35124221150000       -3.38357962310000       -2.01294833100000
