27
 energy: -49.337435502504 gnorm: 0.000038423410 xtb: 6.5.0 (unknown)
C           -3.47564921540000        1.79505283850000        0.41179489520000
C           -2.47178976590000        1.54794150220000       -0.41488146470000
C           -1.54270308050000        0.41649495960000       -0.26891185750000
C           -2.09153108850000       -0.84801524410000       -0.08209083650000
C           -1.28680570110000       -1.97193692400000       -0.08373696920000
Cl          -1.99390198440000       -3.53549988540000        0.12743417460000
C            0.07394886130000       -1.85504409610000       -0.28827288950000
C            0.65477803900000       -0.59631410010000       -0.41361065710000
C            2.10029297130000       -0.54680746290000       -0.63605640750000
C            2.97844009980000        0.31656621020000       -0.15627900770000
F            2.77531701530000        1.31682271350000        0.68460078650000
F            4.28067320710000        0.24861031180000       -0.43254640230000
C           -0.14991568290000        0.55759342990000       -0.38716798360000
O            0.49363786340000        1.74507899680000       -0.55756507520000
C            0.11083977880000        2.88832967410000        0.19811204720000
C            0.00944964200000        2.62498950340000        1.69441024630000
H           -4.15874777970000        2.61063386140000        0.24859350590000
H           -3.64096802550000        1.19981035620000        1.29477367820000
H           -2.31858317940000        2.16167539490000       -1.29387758790000
H           -3.16085574000000       -0.94680290700000        0.01858240910000
H            0.69504942720000       -2.73598335970000       -0.32565907950000
H            2.51317591310000       -1.33341941990000       -1.25134226800000
H           -0.83102618570000        3.30775544560000       -0.17042680240000
H            0.91372124220000        3.60173092060000       -0.00414588060000
H           -0.78888057830000        1.91797722120000        1.90821430210000
H           -0.20595495130000        3.55894894350000        2.20569607770000
H            0.94547841230000        2.22401634310000        2.07158299260000
