  54
        -60.20259021
 C         -8.3553253676       -0.1558310606       -1.2536566582
 C         -7.3573446200       -0.2972870048       -0.1109778679
 C         -5.9196636340       -0.0945563663       -0.5832018379
 C         -4.9140364885       -0.2309018460        0.5572344247
 C         -3.4781264297       -0.0277920435        0.0820554314
 C         -2.4711566341       -0.1516399417        1.2315285838
 C         -1.0659544962        0.0375350040        0.7320298607
 C         -0.5480412755        1.3223495671        0.6532934424
 C          0.7242275092        1.5905007582        0.1714242073
 C          1.2133086243        3.0081347801        0.1086231961
 C          1.5123896170        0.5217449624       -0.2566404805
 C          2.9183256385        0.7109198860       -0.7537999972
 C          3.9148850588        0.5973608833        0.4062902602
 C          5.3516045633        0.9290321044        0.0031253648
 C          5.9472390326        0.0187418396       -1.0733647398
 C          5.9790856538       -1.4679439266       -0.7160998761
 C          6.8350822694       -1.7736448905        0.5072540111
 C          0.9940826580       -0.7629027278       -0.1784915913
 C         -0.2784819516       -1.0311254951        0.3029250736
 C         -0.7684915066       -2.4485071508        0.3631127716
 H         -9.3716860150       -0.3057954651       -0.8967261530
 H         -8.1522997396       -0.8901831557       -2.0302889504
 H         -8.2897293283        0.8357599597       -1.6964467853
 H         -7.4538716621       -1.2903506273        0.3342283572
 H         -7.5883880688        0.4360254979        0.6652379030
 H         -5.8242858803        0.8974830419       -1.0312567766
 H         -5.6883067197       -0.8291352140       -1.3584968028
 H         -5.0099393830       -1.2228261129        1.0062164417
 H         -5.1455620184        0.5041989038        1.3321160494
 H         -3.3790810486        0.9609385066       -0.3717584043
 H         -3.2421504905       -0.7644211569       -0.6891581862
 H         -2.5839996701       -1.1269736956        1.7061525505
 H         -2.6968347061        0.6124541477        1.9792566851
 H         -1.1639010878        2.1473768725        0.9861568592
 H          0.4789468252        3.6828139998        0.5420440464
 H          1.3840545444        3.3093892824       -0.9251290027
 H          2.1499219935        3.1246885973        0.6509216129
 H          3.0310462098        1.6850103890       -1.2312624317
 H          3.1401567329       -0.0574956707       -1.4962184589
 H          3.8635642878       -0.4097063062        0.8228786661
 H          3.6126105780        1.2856161772        1.1997289096
 H          5.9808675053        0.8896669239        0.8945848243
 H          5.3827729938        1.9569339997       -0.3689189822
 H          6.9700941015        0.3515805884       -1.2695681789
 H          5.3841158294        0.1435364592       -2.0005886463
 H          6.3811134935       -2.0140468492       -1.5735545197
 H          4.9638163648       -1.8307248504       -0.5483182557
 H          7.8402492188       -1.3777971537        0.3768405144
 H          6.9075955553       -2.8486026974        0.6583532930
 H          6.4057287207       -1.3351228682        1.4043107470
 H          1.6090399222       -1.5884894153       -0.5120697159
 H         -0.0354931778       -3.1229128885       -0.0730780151
 H         -1.7057792492       -2.5624381502       -0.1784206254
 H         -0.9382623544       -2.7522393795        1.3962871447
