  20
        -30.39823877
 C          3.1886333046       -1.6976401097        0.0276406504
 C          2.7874543330       -0.4329158080        0.0016956006
 C          1.4085579871        0.0341277517       -0.0179360189
 C          0.2880390988       -0.8104863636       -0.0938989269
 C         -0.9731460214       -0.2503038665       -0.0914999697
 C         -2.1925743111       -1.0420773282       -0.2127324562
 C         -2.3323800182       -2.2789258687        0.2458482246
 C         -1.0155897912        1.1681285286        0.0058921038
 N         -2.1871240283        1.8644330101        0.0161728655
 N          0.0927218827        1.9026133212        0.0362171922
 N          1.2641348330        1.3547693968        0.0182928836
 H          4.2344641501       -1.9515455747        0.0450569956
 H          2.5037714006       -2.5292632649        0.0342293515
 H          3.5087417293        0.3727120274        0.0031709570
 H          0.4063906215       -1.8782206659       -0.1927386309
 H         -3.0185643355       -0.5561199180       -0.7169728580
 H         -1.5408471183       -2.7852336965        0.7727034160
 H         -3.2510326815       -2.8266085093        0.1243924414
 H         -3.0232377470        1.4101018744        0.3389052926
 H         -2.0931047621        2.8463619087        0.2176441963
