  17
        -25.20317581
 C          2.9136718968        1.1694255400       -0.0021798068
 C          1.5865413941        1.2068303303        0.0032402776
 C          0.7204760375        0.0479323736        0.0009402222
 C          1.0795798185       -1.2740011243        0.0012360387
 O          0.0000345332       -2.0700122729        0.0000183149
 C         -1.0795352749       -1.2740376873       -0.0012783894
 C         -0.7204803446        0.0479088706       -0.0007822126
 C         -1.5865814108        1.2067811666       -0.0029939691
 C         -2.9137114384        1.1693831473        0.0018045602
 H          3.5007461547        2.0714032402        0.0004637277
 H          3.4603535887        0.2424378107       -0.0093795871
 H          1.0839202879        2.1646115075        0.0100920958
 H          2.0374140614       -1.7544406713        0.0026881368
 H         -2.0373575759       -1.7545010581       -0.0027640180
 H         -1.0839875336        2.1645621853       -0.0093250309
 H         -3.4604483007        0.2424582407        0.0085781133
 H         -3.5007202693        2.0714105113       -0.0004859223
