  25
        -37.88613968
 C          3.8905395242        0.1796592849        0.6640007454
 C          3.0738608438       -0.4350355861       -0.1805029171
 C          1.6047620616       -0.3553762264       -0.1681119073
 C          0.9074613164       -1.5516209013       -0.1788340783
 C         -0.4774233985       -1.5199686614       -0.1038340481
 N         -1.3949414210       -2.5432732212       -0.1069198458
 C         -2.5510258644       -1.9670518015       -0.0542327615
 N         -2.4814492995       -0.6028057645       -0.0022847475
 C         -1.1499059417       -0.2799974000       -0.0333806156
 C         -0.4788530805        0.9422623935       -0.0673882684
 C         -1.1918609910        2.2168861435       -0.0774959214
 C         -2.2954199843        2.4847040757        0.6105485686
 C          0.9227020830        0.8875574674       -0.1387917993
 N          1.6359946636        2.0634015594       -0.2660630074
 H          4.9580900100        0.0445336557        0.6173289818
 H          3.5295885814        0.8138445712        1.4587710918
 H          3.4870275452       -1.1130430704       -0.9178390632
 H          1.4316074766       -2.4931524102       -0.2189870449
 H         -3.4879158748       -2.4901940578       -0.0434966391
 H         -3.2492981837        0.0464530597       -0.0150577026
 H         -0.7676777318        2.9827476773       -0.7163738973
 H         -2.7298971443        1.7778736427        1.2985936167
 H         -2.7869288415        3.4403601104        0.5406426990
 H          1.2436615093        2.8855424379        0.1585099723
 H          2.6357702590        1.9767381643       -0.1881412348
