  51
        -58.13390751
 C         -7.2664467056       -1.4493122054       -1.1118568865
 C         -6.5220143350       -0.3206381393       -0.4086481325
 C         -5.2663864329        0.0872626441       -1.1764118783
 C         -4.5311000501        1.2796621312       -0.5619983632
 C         -3.8327824470        0.9412555102        0.7533901501
 C         -3.1591211275        2.1478920336        1.4104602395
 C         -2.0532123345        2.8084712769        0.5852408251
 C         -0.8831432815        1.8769197648        0.2775751726
 C          0.2404452187        2.6108475789       -0.4514557458
 C          1.4784428731        1.7452189372       -0.6863160975
 C          1.2420139757        0.6072927817       -1.6758758458
 C          2.5190595242       -0.2001660968       -1.9367511648
 C          2.9982356099       -0.8886183590       -0.6958083530
 C          2.2903261186       -1.9689013317       -0.1002768574
 C          2.8629429404       -2.4504198894        1.0298507750
 C          2.4079623556       -3.5627546754        1.9061848678
 S          4.3171744334       -1.5743527050        1.3985688680
 C          4.1202524049       -0.5581022592        0.0009006575
 C          5.1272680061        0.5024219148       -0.2871930645
 H         -8.1568255105       -1.7287312197       -0.5531750896
 H         -6.6295450178       -2.3266987258       -1.2033840558
 H         -7.5703710395       -1.1429582319       -2.1107226889
 H         -6.2530409937       -0.6452515292        0.5978281619
 H         -7.1819009690        0.5449894303       -0.3142052894
 H         -5.5560237224        0.3448463441       -2.1986278103
 H         -4.5853576658       -0.7655414882       -1.2334349875
 H         -5.2406313313        2.0939170845       -0.3955365025
 H         -3.7876340115        1.6290627343       -1.2807167661
 H         -3.0951808479        0.1558153699        0.5791859058
 H         -4.5669809147        0.5471550684        1.4588104177
 H         -2.7357864993        1.8272312230        2.3659902066
 H         -3.9235743556        2.8990156612        1.6259985395
 H         -1.6795086721        3.6685546909        1.1475472238
 H         -2.4669158564        3.1907632297       -0.3496360944
 H         -1.2330830385        1.0493783911       -0.3390700705
 H         -0.4959055976        1.4615507443        1.2112100047
 H          0.5325439251        3.4816780817        0.1413856342
 H         -0.1313141750        2.9779354077       -1.4116069437
 H          1.8131168201        1.3286822282        0.2664147362
 H          2.2801826978        2.3811229648       -1.0713602057
 H          0.8825606584        1.0196294719       -2.6218546016
 H          0.4750846616       -0.0637694890       -1.2875026451
 H          3.2972099636        0.4624598950       -2.3181924218
 H          2.3100613301       -0.9540816815       -2.7008682274
 H          1.3822468094       -2.3717930734       -0.5145613111
 H          1.4803728681       -3.9809105608        1.5220056809
 H          2.2397355584       -3.2088108802        2.9232427968
 H          3.1583399646       -4.3522055527        1.9484152222
 H          5.9273995121        0.4678306239        0.4478346946
 H          4.6686488587        1.4907787364       -0.2526723502
 H          5.5613738851        0.3632569951       -1.2776920559
