  17
        -25.21068440
 C          2.6665937284       -1.5032349845        0.0018439943
 C          2.4123735315       -0.1971738468       -0.0014575127
 C          1.0916545694        0.3734464637       -0.0008965713
 C          0.7020022974        1.6951014403       -0.0006297744
 C         -0.7019965971        1.6951065054        0.0006806386
 C         -1.0916623778        0.3734582465        0.0008965630
 C         -2.4123814973       -0.1971677974        0.0013107544
 C         -2.6665810451       -1.5032475937       -0.0017978922
 O         -0.0000065668       -0.4225131846        0.0000431734
 H          3.6724565389       -1.8839468805        0.0013306953
 H          1.8690314050       -2.2262155889        0.0052643271
 H          3.2140299440        0.5283383977       -0.0045738035
 H          1.3499855953        2.5482032478       -0.0011881350
 H         -1.3499705508        2.5482119505        0.0013587961
 H         -3.2140335692        0.5283374291        0.0041418144
 H         -1.8689945427       -2.2262066749       -0.0048412458
 H         -3.6724316742       -1.8839933654       -0.0015843190
