  80
        -93.64545090
 C         -5.9843855954        5.5955386117        0.5136815909
 C         -4.6686059831        4.8883208179        0.8166213828
 C         -4.7829969169        3.8621549389        1.9444033880
 C         -5.6411898584        2.6523230814        1.5788403472
 C         -5.6193844449        1.5989302878        2.6848106760
 C         -6.5841733292        0.4365197094        2.4413088852
 C         -6.3426542488       -0.3340835305        1.1421884291
 C         -4.9598836041       -0.9775779799        1.0784190489
 C         -4.7533654151       -1.8408880680       -0.1666297767
 C         -4.7001027303       -1.0077219573       -1.4526400004
 O         -3.7638441589        0.0430582899       -1.3914485577
 C         -2.4225978460       -0.2341993994       -1.4441275502
 C         -1.8683832283       -1.4603379506       -1.7869783294
 C         -0.4968457992       -1.6429188582       -1.8421379531
 C          0.0976761930       -2.9656054657       -2.2170482468
 C          0.3503144865       -0.5688646984       -1.5484767369
 O          1.6902064318       -0.8319214621       -1.6545067068
 C          2.6279209834        0.1165967825       -1.2007827475
 C          2.7092850604        0.2013245276        0.3266155447
 C          3.0150057646       -1.1464081799        0.9828321456
 C          4.3730471898       -1.7506226215        0.6236127726
 C          5.5587284988       -0.8844273450        1.0429949679
 C          6.8905052178       -1.5908428618        0.7984853913
 C          8.0772915350       -0.7145886606        1.1938347429
 C          9.4267004823       -1.4213396884        1.0631145318
 C          9.8213914538       -1.7182405466       -0.3821052841
 C         11.2202346219       -2.3166031604       -0.4692880972
 C         -0.2042260881        0.6581060854       -1.2086140202
 C         -1.5758678106        0.8400438326       -1.1513547438
 C         -2.1699008219        2.1644016364       -0.7814656711
 H         -5.8338775051        6.3672901340       -0.2380996976
 H         -6.3799636803        6.0652273612        1.4119622745
 H         -6.7252649426        4.8960826641        0.1357145441
 H         -3.9245437695        5.6365160053        1.1013305988
 H         -4.3075168119        4.3915650878       -0.0863463726
 H         -5.1979504821        4.3472667564        2.8315547156
 H         -3.7788961844        3.5139878335        2.2019828999
 H         -5.2643928530        2.2215577914        0.6496772153
 H         -6.6724566460        2.9680726722        1.4115989509
 H         -5.8949335560        2.0755866862        3.6296652397
 H         -4.6037221642        1.2164467643        2.8023116644
 H         -7.6053829935        0.8263530764        2.4254556391
 H         -6.5106798446       -0.2567817504        3.2834462691
 H         -6.4750492957        0.3410454635        0.2972008231
 H         -7.1017714268       -1.1171832968        1.0606966470
 H         -4.8156860156       -1.5996818340        1.9651449184
 H         -4.1922126662       -0.2032883485        1.0837724683
 H         -5.5619099224       -2.5683029019       -0.2632888186
 H         -3.8140296576       -2.3870088643       -0.0577299405
 H         -5.6579418762       -0.5062274720       -1.6135667293
 H         -4.5113690301       -1.6563779152       -2.3179535273
 H         -2.4994857225       -2.3024981970       -2.0259194206
 H         -0.6757652570       -3.7153137301       -2.3619371460
 H          0.7824486983       -3.3027345570       -1.4403740647
 H          0.6752538923       -2.8679790537       -3.1351004985
 H          2.4210576118        1.1084195158       -1.6240274140
 H          3.5811364921       -0.2289136075       -1.6087143107
 H          1.7513841949        0.5552962478        0.7137621470
 H          3.4699987203        0.9369030040        0.5901219104
 H          2.2335921482       -1.8519494399        0.6918362209
 H          2.9600856058       -1.0193181284        2.0668743668
 H          4.4205624093       -1.9398062591       -0.4498963504
 H          4.4533276153       -2.7187197185        1.1249330039
 H          5.4686215093       -0.6388321505        2.1041734369
 H          5.5513335954        0.0526115800        0.4829215482
 H          6.9614650814       -1.8545704899       -0.2581262212
 H          6.9198696195       -2.5181635867        1.3757045770
 H          7.9473881962       -0.4004355241        2.2328044411
 H          8.0822167308        0.1871729186        0.5765079028
 H          9.4007562467       -2.3556690402        1.6290313697
 H         10.1968077471       -0.7874142703        1.5103870638
 H          9.7865511981       -0.7925753630       -0.9615089306
 H          9.1079825531       -2.4155920418       -0.8239581066
 H         11.9569054583       -1.6286357852       -0.0595245053
 H         11.4845000200       -2.5259632906       -1.5033667262
 H         11.2723388797       -3.2465185611        0.0930740764
 H          0.4258826126        1.5053853664       -0.9858460071
 H         -1.3964090223        2.9122728318       -0.6274988866
 H         -2.7566482575        2.0700964880        0.1312108215
 H         -2.8432814961        2.5023362179       -1.5674514521
