  40
        -55.55911399
 C         -1.4781653449        2.2794572048       -2.1019113294
 C         -1.5906802002        1.1956971773       -1.0713255233
 C         -2.0256424321        1.4781598647        0.2132570016
 C         -2.1292061660        0.4671735096        1.1683817193
 C         -2.6085154511        0.7926712455        2.5499905246
 C         -1.7665254642       -0.8197501972        0.8221240147
 C         -1.3023138441       -1.1238533971       -0.4630326547
 O         -0.9787041061       -2.4303546801       -0.6476857699
 C         -0.3605200210       -2.8935137349       -1.8321465831
 C          1.1499575494       -3.1168261123       -1.6776363780
 C          1.9310579511       -1.8611231485       -1.2693651323
 C          2.0917085295       -1.7489734698        0.2489875128
 C          2.5661246251       -0.3675721416        0.7038672990
 C          1.4313124227        0.6488731793        0.6402865192
 C          1.7895124810        2.0182061595        1.1723446565
 O          2.8682478790        2.3501776199        1.5675893582
 O          0.7541308652        2.8820693286        1.1677637929
 C         -1.2271149220       -0.1060584614       -1.4050867909
 H         -1.9126481611        3.2075681182       -1.7401651331
 H         -1.9885618686        1.9897845261       -3.0187377528
 H         -0.4323746071        2.4643839362       -2.3497096662
 H         -2.3248392000        2.4845570281        0.4719708879
 H         -1.9455761836        1.5171470681        3.0228972532
 H         -2.6471518492       -0.0994007035        3.1691319771
 H         -3.6038063693        1.2327472204        2.5098984950
 H         -1.8329367754       -1.6248191605        1.5375672415
 H         -0.5554063855       -2.2243614416       -2.6738793138
 H         -0.8379038212       -3.8556341463       -2.0507455586
 H          1.5093264532       -3.4857173992       -2.6402010141
 H          1.3176592088       -3.8996482465       -0.9364247575
 H          1.4231264463       -0.9791042982       -1.6602931757
 H          2.9237829286       -1.8887587934       -1.7232693139
 H          2.8120623489       -2.5018867152        0.5755677765
 H          1.1402686517       -1.9741354454        0.7337109673
 H          3.3996852956       -0.0309274821        0.0858249439
 H          2.9245614459       -0.4234626246        1.7327410525
 H          0.5796379331        0.2767258647        1.2175190109
 H          1.0930798757        0.7779945684       -0.3909744302
 H         -0.0623107661        2.4782037541        0.8257397402
 H         -0.8906433953       -0.2918117724       -2.4139444590
