20
 energy: -30.422031098666 gnorm: 0.000067111489 xtb: 6.4.1 (23d549d)
C        -3.89819305390000   -0.27327718270000   -0.00375211000000
C        -2.71225111580000   -0.86945005400000    0.01727266620000
C        -1.41823547180000   -0.20682000710000   -0.01643236080000
C        -1.22466649610000    1.16672402020000   -0.18057249710000
N        -0.02661152550000    1.71563374100000   -0.10595748590000
C         1.02934316410000    0.92023916900000    0.06391327270000
N         2.23674910460000    1.54230280140000    0.17521116970000
C         0.86521770440000   -0.49073600600000    0.09708445010000
C         1.95687540640000   -1.45525797120000    0.15700235310000
C         3.17588222950000   -1.29715595190000   -0.34557042420000
N        -0.35306781590000   -1.00498798520000    0.10360830810000
H        -4.81072223020000   -0.84356015620000    0.02464196150000
H        -4.01014326330000    0.79674514020000   -0.04715473820000
H        -2.64056759840000   -1.94749924510000    0.07153798130000
H        -2.04033779380000    1.85190524320000   -0.36150502500000
H         2.18436158160000    2.53709407450000    0.33017071370000
H         2.97879063570000    1.04475935580000    0.63885091210000
H         1.67450594460000   -2.39348715660000    0.61614707270000
H         3.47312428910000   -0.41302080970000   -0.88395426440000
H         3.91070155250000   -2.08149649960000   -0.27587486500000
