24
 energy: -37.072369510762 gnorm: 0.000022618504 xtb: 6.4.1 (23d549d)
C         3.96504008510000   -1.00460387330000   -0.49004974460000
C         3.26375980400000    0.07416275090000   -0.16366484500000
C         1.81663425600000    0.14485401750000   -0.00526118500000
C         0.98615078280000   -0.97335191400000    0.00714354400000
C        -0.39230299610000   -0.88576356540000    0.16619859970000
C        -1.22216344190000   -2.08582983700000    0.24093186440000
C        -0.96733265390000   -3.23345965350000   -0.37247866320000
C        -0.96489036520000    0.38556523520000    0.30176721210000
S        -2.72698991530000    0.60301849140000    0.46176913670000
C        -3.24987847400000    0.02339356780000   -1.18493286600000
C        -0.16833121740000    1.51815959590000    0.31145039370000
C         1.19655889680000    1.38638169310000    0.16560239720000
F         1.94795701960000    2.50824185610000    0.17673368820000
H         5.03585464080000   -0.96224678860000   -0.58718995640000
H         3.51215222410000   -1.96305876920000   -0.67797870230000
H         3.77999878630000    1.01198612650000   -0.00582936480000
H         1.42970358420000   -1.95266048010000   -0.07212837090000
H        -2.11227265220000   -1.98358228060000    0.84999843670000
H        -0.11419429780000   -3.36437141830000   -1.01741224050000
H        -1.61711046820000   -4.08485692420000   -0.26497666730000
H        -4.33278456990000    0.08712877030000   -1.20006030830000
H        -2.92860308320000   -1.00225786870000   -1.33797181390000
H        -2.82565999890000    0.67684107980000   -1.94154814570000
H        -0.60752048280000    2.49600730840000    0.42991598130000
