  44
        -76.31949527
 C          0.0181253033        5.1726061237       -0.2598834722
 O         -1.3581577433        4.9170880430       -0.1364930792
 C         -1.7785052382        3.6212256828       -0.0660063481
 C         -3.1671439922        3.4543328975        0.0544833200
 C         -3.7345311704        2.2030119985        0.1160973671
 C         -0.9331529110        2.5215573128       -0.1088169525
 C         -1.5107678004        1.2625365949       -0.0184222934
 C         -2.9067211427        1.0868932895        0.0754709497
 C         -3.1424316016       -0.3288974809        0.0920621394
 C         -4.2842747158       -1.1155125611        0.1917093891
 C         -4.1499237393       -2.4842674398        0.2047365589
 C         -2.8875446445       -3.0944434324        0.1382533446
 O         -2.9039651172       -4.4582286129        0.1820752495
 C         -1.6810359972       -5.1478288267        0.1301188156
 C         -1.7343176023       -2.3292376937        0.0379477586
 C         -1.8796147980       -0.9492529064       -0.0025843638
 N         -0.8973761727        0.0230610074       -0.0675880023
 C          0.4756287134       -0.2063463638       -0.1672252796
 C          1.3659123581        0.4457208206        0.6849288421
 C          2.7235140229        0.2257361860        0.5850894177
 C          3.2348263261       -0.6611165499       -0.3657693340
 C          4.6509365703       -0.9423187612       -0.5236747354
 C          5.6748129743       -0.4239738749        0.1394279326
 F          5.6476580393        0.4815446955        1.1106053199
 F          6.9408277585       -0.7629441247       -0.0979405283
 C          2.3343627806       -1.3151160717       -1.2116157111
 C          0.9777267996       -1.0911048716       -1.1206991527
 H          0.1152971404        6.2566333335       -0.2933796050
 H          0.4272088812        4.7451753104       -1.1815641032
 H          0.5787266072        4.7867834495        0.5982635919
 H         -3.7745839560        4.3444877902        0.0854424927
 H         -4.8046442015        2.0882804457        0.1910747314
 H          0.1334983737        2.6265310978       -0.2236374037
 H         -5.2591295874       -0.6587297901        0.2618261769
 H         -5.0110025297       -3.1287469469        0.2789091896
 H         -1.9358780544       -6.2053247408        0.1799516694
 H         -1.0365232207       -4.8917643346        0.9778376241
 H         -1.1455603224       -4.9498595668       -0.8047329643
 H         -0.7538729577       -2.7763769069        0.0089132917
 H          0.9809929577        1.1121634041        1.4417797631
 H          3.3857953090        0.7404686250        1.2614271947
 H          4.9168869740       -1.6661958718       -1.2806257543
 H          2.7104935680       -1.9996893649       -1.9578332950
 H          0.2973849339       -1.5824234660       -1.7996437715
