  16
        -24.66313974
 C         -3.6990373449        0.1409371672        0.0040641667
 C         -2.5571711333        0.8175677621       -0.0013483002
 C         -1.2300687159        0.2355020848       -0.0015481097
 C         -0.8986752762       -1.0974258420       -0.0010726066
 S          0.7973805541       -1.3165955088       -0.0005730019
 C          0.9707110230        0.4449460328       -0.0009196073
 C          2.2537600571        1.0915643912        0.0001607182
 C          3.4196401743        0.4539427542        0.0030780637
 N         -0.1556246938        1.0657805471       -0.0017387445
 H         -4.6486823364        0.6467423156        0.0041243556
 H         -3.7318402410       -0.9353520229        0.0088427211
 H         -2.5544072395        1.8985129606       -0.0056656368
 H         -1.5489494758       -1.9480118269       -0.0012006880
 H          2.2002869940        2.1714629797       -0.0012516374
 H          3.4741469874       -0.6227607888        0.0045951909
 H          4.3538561441        0.9866621020        0.0041741662
  16
        -24.66227954
 C         -3.5690982337        0.5055092359        0.0060675032
 C         -2.3369969193        0.9988847613       -0.0012155418
 C         -1.1143929300        0.2206047495       -0.0013781588
 C         -0.9936179034       -1.1482617541       -0.0024477262
 S          0.6490383152       -1.6233070355       -0.0022912895
 C          1.0900218970        0.0899362030       -0.0007657672
 C          2.4747667979        0.4775196317        0.0005031095
 C          2.8728098261        1.7463726461        0.0045815263
 N          0.0734786964        0.8772838815       -0.0006466465
 H         -4.4299183637        1.1510280076        0.0057339215
 H         -3.7667099332       -0.5529331049        0.0125269021
 H         -2.1688875386        2.0666940403       -0.0070307714
 H         -1.7677392344       -1.8877397389       -0.0037012705
 H          3.1850694826       -0.3378897774       -0.0017864734
 H          2.1535724445        2.5465994369        0.0068642687
 H          3.9154274338        2.0115518956        0.0055678369
