  23
        -36.71765537
 C         -4.4199085375        0.1439774246        0.1067276884
 C         -3.2310199525        0.7353156265        0.0930251170
 C         -1.9345175177        0.0781824970       -0.0031402080
 C         -1.7810193383       -1.3008748736       -0.1642404450
 C         -0.5279474482       -1.8670112285       -0.2481782501
 C          0.6327740883       -1.0953280930       -0.1697093180
 C          1.9327965871       -1.7581761101       -0.1883469189
 C          2.9874641126       -1.3937705077        0.5270183071
 C          0.4880680034        0.2916907525       -0.0327884055
 C          1.6581496017        1.2198429342       -0.0931571545
 O          2.4636572132        1.2363575881       -0.9782596108
 O          1.7198642012        2.1157657925        0.9184479540
 C         -0.7781165076        0.8555299888        0.0553838233
 H         -5.3271581138        0.7180295589        0.1819467551
 H         -4.5428570281       -0.9235705685        0.0461595452
 H         -3.1833117321        1.8154782670        0.1619992986
 H         -2.6512593314       -1.9346649817       -0.2298225422
 H         -0.4327653768       -2.9369841004       -0.3649423230
 H          1.9823157733       -2.6475478039       -0.8035358448
 H          2.9738739281       -0.5431363105        1.1877275966
 H          3.9130881625       -1.9405530098        0.4811636021
 H          0.9995646798        1.9973341763        1.5523416549
 H         -0.8748618962        1.9313753568        0.1355199099
