23
 energy: -36.717655374448 gnorm: 0.000088928818 xtb: 6.4.1 (23d549d)
C        -4.41990853750000    0.14397742460000    0.10672768840000
C        -3.23101995250000    0.73531562650000    0.09302511700000
C        -1.93451751770000    0.07818249700000   -0.00314020800000
C        -1.78101933830000   -1.30087487360000   -0.16424044500000
C        -0.52794744820000   -1.86701122850000   -0.24817825010000
C         0.63277408830000   -1.09532809300000   -0.16970931800000
C         1.93279658710000   -1.75817611010000   -0.18834691890000
C         2.98746411260000   -1.39377050770000    0.52701830710000
C         0.48806800340000    0.29169075250000   -0.03278840550000
C         1.65814960170000    1.21984293420000   -0.09315715450000
O         2.46365721320000    1.23635758810000   -0.97825961080000
O         1.71986420120000    2.11576579250000    0.91844795400000
C        -0.77811650760000    0.85552998880000    0.05538382330000
H        -5.32715811380000    0.71802955890000    0.18194675510000
H        -4.54285702810000   -0.92357056850000    0.04615954520000
H        -3.18331173210000    1.81547826700000    0.16199929860000
H        -2.65125933140000   -1.93466498170000   -0.22982254220000
H        -0.43276537680000   -2.93698410040000   -0.36494232300000
H         1.98231577330000   -2.64754780390000   -0.80353584480000
H         2.97387392810000   -0.54313631050000    1.18772759660000
H         3.91308816250000   -1.94055300980000    0.48116360210000
H         0.99956467980000    1.99733417630000    1.55234165490000
H        -0.87486189620000    1.93137535680000    0.13551990990000
