  38
        -68.05257612
 O         -5.0773171993        0.0495084871        0.2705956735
 C         -3.8596607399        0.0325599817        0.1639792046
 C         -3.0543302814        1.2555450563        0.0793036206
 C         -3.6964240276        2.4958260420        0.1232638080
 C         -2.9837211377        3.6681203109        0.0381600827
 C         -1.5996545120        3.6145300904       -0.0989092486
 C         -0.9427952897        2.4058773099       -0.1451345695
 C         -1.6569605003        1.2040197913       -0.0514590496
 N         -1.0032597809       -0.0073352340       -0.0962759992
 C          0.4142015850       -0.0280821815       -0.2336251277
 C          1.2256590374        0.1096658967        0.8856873569
 C          2.6003466711        0.0886386531        0.7554887937
 C          3.1917195714       -0.0719913085       -0.4997091736
 C          4.6300536965       -0.1050241644       -0.7108951701
 C          5.5975939400        0.0033834627        0.1883927793
 F          5.4795218630        0.1686528980        1.4987082426
 F          6.8880671067       -0.0423717130       -0.1268834281
 C          2.3624848251       -0.2092533261       -1.6163406042
 C          0.9887053114       -0.1875167772       -1.4886882941
 C         -1.6871910667       -1.1998804290       -0.0139336739
 C         -3.0860206944       -1.2124509485        0.1103487329
 C         -3.7590570163       -2.4343113370        0.1914615536
 C         -3.0749598994       -3.6259971659        0.1543408072
 C         -1.6879902563       -3.6110027513        0.0386492080
 C         -1.0009503756       -2.4211733715       -0.0431542804
 H         -4.7712868497        2.4916387843        0.2252704480
 H         -3.4879894568        4.6213125628        0.0739088667
 H         -1.0297545273        4.5290881471       -0.1714568817
 H          0.1309470815        2.3828876328       -0.2558357862
 H          0.7715287703        0.2340968670        1.8572399258
 H          3.2092330094        0.1966488371        1.6374129239
 H          4.9645489195       -0.2346884031       -1.7300566544
 H          2.8037220003       -0.3332508616       -2.5939622560
 H          0.3533479035       -0.2947791865       -2.3550285530
 H         -4.8341196966       -2.4001635030        0.2853968157
 H         -3.6031272452       -4.5647359503        0.2171692670
 H         -1.1394134942       -4.5410268448        0.0140765175
 H          0.0754310208       -2.4281179252       -0.1271989283
