  22
        -29.87060436
 C          3.2000664030       -1.0562637866        0.3566678472
 C          2.6303240012       -0.0174933583       -0.2431291084
 C          1.2327335630        0.3969169307       -0.1221996832
 C          0.9621606811        1.7628177969       -0.0855609309
 C         -0.3259547597        2.2372864616        0.0618633455
 C         -1.3723618943        1.3402387779        0.1683972052
 C         -1.1514957769       -0.0304505421        0.1054319672
 C         -2.2687806746       -0.9649355161        0.2459439080
 C         -3.5005111857       -0.7481872896       -0.1960674233
 C          0.1619337718       -0.5144150803       -0.0611180443
 N          0.3834847997       -1.8741878417       -0.1672369338
 H          4.2484069938       -1.2702324357        0.2291584238
 H          2.6603973578       -1.7006530487        1.0300055848
 H          3.2427898520        0.6400453865       -0.8501878104
 H          1.7878130733        2.4568317403       -0.1558036152
 H         -0.5132811306        3.2996676843        0.1030357941
 H         -2.3789241990        1.7007240332        0.3179748532
 H         -2.0476630598       -1.8879135514        0.7691089699
 H         -3.7637872421        0.1446670602       -0.7381159086
 H         -4.2918460320       -1.4619569798       -0.0410862164
 H         -0.3963873455       -2.4140943981       -0.5065790122
 H          1.2699484014       -2.1278281704       -0.5770407349
