25
 energy: -44.388674615815 gnorm: 0.000126753127 xtb: 6.4.1 (23d549d)
C         2.34217751840000   -3.26297105670000    0.09499446960000
C         1.09862288280000   -2.83917133670000   -0.09944780590000
C         0.60107576670000   -1.46970076950000   -0.07491034460000
C        -0.77250252820000   -1.26069248350000   -0.05618362360000
C        -1.35618041050000    0.00434534890000   -0.02977274100000
C        -2.82231315940000    0.17469994650000    0.02829969840000
O        -3.39383432420000    1.21836825500000   -0.20191987140000
O        -3.55785486860000   -0.89391618150000    0.37761885580000
C        -0.51861379710000    1.14885450700000   -0.06596122610000
N        -1.03905453010000    2.38763302230000   -0.03845219710000
C         0.88725709720000    0.96674496030000   -0.09098893370000
C         1.77052035540000    2.13654665470000   -0.17991570300000
C         2.88894307370000    2.30099782330000    0.50994226700000
C         1.40153452940000   -0.31751402570000   -0.08376185600000
F         2.73985759900000   -0.45281578790000   -0.15307817200000
H         2.57266167270000   -4.31419485290000    0.05769106690000
H         3.16780551650000   -2.60619198980000    0.29701963120000
H         0.32405128570000   -3.57535277800000   -0.28269283080000
H        -1.39466270420000   -2.14628131880000   -0.09363861750000
H        -3.01847171300000   -1.65995679160000    0.61191459660000
H        -2.04484095620000    2.47833223660000   -0.09476888860000
H        -0.44154001600000    3.19250663220000   -0.02003341570000
H         1.45734338800000    2.89860540710000   -0.88495123560000
H         3.23188852700000    1.57523512680000    1.22689402760000
H         3.50432127710000    3.17485875080000    0.38183617740000
