  23
        -38.66035530
 C         -4.2204286590       -1.3006355729        0.0632269479
 C         -3.0061733731       -1.8151116951       -0.1088197811
 C         -1.7890072026       -1.0457822420       -0.0815716820
 C         -0.4870888118       -1.4439872089       -0.2394246337
 C          0.3183003601       -0.2832032217       -0.1127781452
 C          1.7798288478       -0.3858784806       -0.1890033180
 O          2.3516554225       -1.3349301823       -0.6684513827
 O          2.4328034390        0.6495687699        0.3641295743
 C          3.8497361024        0.5583208830        0.3521132968
 C         -0.5638682058        0.7713235963        0.1045704490
 C         -0.4768901567        2.2016423247        0.2593685095
 C          0.5865948690        2.9814943776        0.0923308969
 O         -1.8244849454        0.2902003051        0.1240859514
 H         -5.1030991084       -1.9142360326        0.0346376843
 H         -4.3613347876       -0.2476865039        0.2380620200
 H         -2.8628663402       -2.8717254390       -0.2843395772
 H         -0.1214692890       -2.4344344066       -0.4154997826
 H          4.2148007273        1.4353360233        0.8806316395
 H          4.2214961462        0.5445428739       -0.6749003490
 H          4.1753408035       -0.3556014707        0.8529717198
 H         -1.4348865429        2.6417820312        0.5091264268
 H          1.5507908423        2.5891087909       -0.1678871034
 H          0.5092492202        4.0473098940        0.2197511004
