25
 energy: -33.038137516631 gnorm: 0.000045538495 xtb: 6.4.1 (23d549d)
C        -4.23894888180000   -0.28771809380000   -0.07928668470000
C        -3.18970199330000    0.51608252860000    0.05594843640000
C        -1.78633663810000    0.13630663880000    0.02179936340000
C        -1.34699488070000   -1.17858917470000   -0.14281528970000
C        -0.00503945920000   -1.48469094850000   -0.14334821280000
C         0.97323343840000   -0.49432474180000   -0.00671354270000
N         2.31244618550000   -0.80343554350000   -0.00627537890000
C         2.79097093630000   -2.15103732060000    0.17731491570000
C         0.54945102900000    0.84686819440000    0.12420205580000
C         1.47092492820000    1.97745905180000    0.23700465030000
C         2.61544890810000    2.13742033100000   -0.41757736860000
C        -0.81101542840000    1.12087495660000    0.16258725650000
H        -5.24504951920000    0.09341383170000   -0.03916090450000
H        -4.14475279310000   -1.34858314890000   -0.23533971960000
H        -3.36250332270000    1.57545201190000    0.20775847210000
H        -2.06346467760000   -1.97721989280000   -0.25698221020000
H         0.29359183830000   -2.51523267760000   -0.25320109280000
H         2.89392398910000   -0.08480634280000    0.40058094490000
H         2.49038753580000   -2.77117893190000   -0.66873826070000
H         2.41788079440000   -2.61407025080000    1.09979904810000
H         3.87836578000000   -2.13081729000000    0.21279919480000
H         1.12775628400000    2.77173414530000    0.89088954940000
H         2.97401839080000    1.42288673210000   -1.13924200540000
H         3.21365672150000    3.02429404100000   -0.28842348970000
H        -1.12118218820000    2.15025675430000    0.28617695680000
