49
 energy: -65.998216196118 gnorm: 0.000067717919 xtb: 6.4.1 (23d549d)
C        -5.99946493880000   -0.63129546320000    0.04870246710000
C        -4.88678413850000   -1.28525699420000    0.36303820940000
C        -3.52116551710000   -0.81351959350000    0.19366025790000
C        -3.19283924550000    0.40983607820000   -0.38990580120000
C        -1.87981047940000    0.81040981670000   -0.52375718300000
C        -0.82546917830000    0.02031223400000   -0.06182748130000
C        -1.15622587120000   -1.20906671950000    0.51470824310000
C        -2.46839022720000   -1.61993360870000    0.62931014690000
S         0.11818248470000   -2.25442553970000    1.16899442120000
C         1.41890481390000   -1.81529370330000    0.04592367470000
C         2.37669331300000   -2.76349044120000   -0.24675464270000
C         3.45615266610000   -2.46208208340000   -1.07828730840000
C         4.50548126380000   -3.41770622670000   -1.39711107520000
C         4.61453038560000   -4.66108590450000   -0.94266443350000
C         3.50661892990000   -1.17952621250000   -1.62385165690000
C         2.53640133040000   -0.23744778640000   -1.34853995660000
C         1.47632892000000   -0.52330852730000   -0.48719764320000
N         0.50189499550000    0.42259420030000   -0.18320756140000
C         0.82220345100000    1.83484805780000   -0.20848930550000
C         0.31965505100000    2.52409051490000    1.06413933270000
C         0.85021096450000    3.95047715220000    1.20735620570000
C         0.40798994260000    4.91852650720000    0.10704612620000
C        -1.10529178620000    5.09373836570000   -0.03037862900000
C        -1.75914034920000    5.66957618350000    1.21986571310000
H        -6.96931250980000   -1.06867750240000    0.21199832510000
H        -5.99544559380000    0.35647519610000   -0.37908432810000
H        -4.96653701250000   -2.27546087110000    0.79508095540000
H        -3.97204574860000    1.05964877900000   -0.75599767000000
H        -1.67001407580000    1.75198168520000   -1.00604172200000
H        -2.67220469110000   -2.57564600040000    1.08941976360000
H         2.28150987990000   -3.73950783730000    0.20120536510000
H         5.26026039710000   -3.04083769220000   -2.07719021390000
H         3.90374518670000   -5.09813981840000   -0.26296377220000
H         5.43317656040000   -5.29408956420000   -1.23894700050000
H         4.31856246440000   -0.91599924500000   -2.28645461240000
H         2.60042468910000    0.73150661740000   -1.81924755580000
H         0.41861100310000    2.32238896460000   -1.10359028770000
H         1.90916302590000    1.92708781810000   -0.23206013920000
H         0.66216811590000    1.93759210570000    1.92050856460000
H        -0.76971086310000    2.52551371850000    1.08918076370000
H         1.94307105540000    3.92101808130000    1.21538629550000
H         0.53108111650000    4.34035984790000    2.17511004590000
H         0.81219733660000    4.58624981640000   -0.85166978080000
H         0.85099190950000    5.89456735250000    0.32104380260000
H        -1.57281319670000    4.13824563400000   -0.27339582600000
H        -1.29230617090000    5.76862688690000   -0.86958523270000
H        -1.69331658130000    4.97378763180000    2.05221873040000
H        -2.81115267210000    5.87422240020000    1.03417813850000
H        -1.27505468850000    6.60031830960000    1.50803028320000
