  25
        -37.88796889
 C          3.9203720344       -0.9164876991        0.4261567464
 C          3.0867304432       -0.0839794607       -0.1825056027
 C          1.6260135151       -0.1543184134       -0.0964947547
 C          1.0033031066       -1.3900945118       -0.0365961014
 C         -0.3826319221       -1.4406203777       -0.0121871074
 N         -1.2341358516       -2.5198739264        0.0013459742
 C         -2.4248266833       -2.0181798338       -0.0366877282
 N         -2.4428180989       -0.6515477648       -0.0656745671
 C         -1.1341992872       -0.2455011480       -0.0483550587
 C         -0.5397930269        1.0157906591       -0.0974403805
 C         -1.3333890509        2.2406950755       -0.1676797317
 C         -2.4741071703        2.4519298405        0.4781533155
 C          0.8629383385        1.0432130629       -0.1081835194
 N          1.5190262353        2.2627718322       -0.1398630055
 H          4.9875749888       -0.8386902551        0.3052280281
 H          3.5682162970       -1.7014627658        1.0738909950
 H          3.4866421574        0.7015358018       -0.8130104571
 H          1.5810639942       -2.2992565395       -0.0429598032
 H         -3.3269075733       -2.5994063310       -0.0389625990
 H         -3.2481744464       -0.0549162652       -0.1477038618
 H         -0.9429834543        3.0162393405       -0.8168308090
 H         -2.8829326618        1.7347825781        1.1711914881
 H         -3.0254791537        3.3701306473        0.3659914036
 H          0.9832435512        3.0546215897        0.1748343701
 H          2.4671299400        2.2562602168        0.1976293435
  25
        -37.88790272
 C          3.9430375170        0.2549484045       -0.4434984154
 C          3.0630930869       -0.4718036270        0.2351605880
 C          1.6040561395       -0.3739739774        0.1561254761
 C          0.8892284204       -1.5621265780        0.1970132860
 C         -0.4905919135       -1.5231421191        0.0734894070
 N         -1.4123750062       -2.5421528462        0.0270610872
 C         -2.5553769910       -1.9627437920       -0.1418509657
 N         -2.4757230669       -0.5992441266       -0.2015326630
 C         -1.1499389656       -0.2813944214       -0.0629867807
 C         -0.4676519495        0.9341831197       -0.0649415970
 C         -1.1628395735        2.2096656976       -0.2215031135
 C         -2.3449779165        2.5077936935        0.3046853944
 C          0.9308021686        0.8719581258        0.0546189144
 N          1.6532227348        2.0517020354        0.0848537727
 H          5.0025699067        0.0880145788       -0.3415537591
 H          3.6449379892        1.0060830069       -1.1553589870
 H          3.4229631602       -1.2648716177        0.8805158430
 H          1.4004308214       -2.5064585127        0.2953825031
 H         -3.4909225825       -2.4821878641       -0.2227987123
 H         -3.2256545702        0.0474682705       -0.3766590093
 H         -0.6542087553        2.9473846101       -0.8314227259
 H         -2.8709032791        1.8300137357        0.9572273922
 H         -2.8163364055        3.4604979704        0.1318887533
 H          1.1454960836        2.8595444332        0.4079511684
 H          2.5812256954        1.9676999550        0.4716684157
  25
        -37.88735406
 C          3.9268914195       -0.9538373829       -0.2746690616
 C          3.0827621362       -0.0815965302        0.2579974822
 C          1.6254472776       -0.1438440076        0.1230394745
 C          1.0016697696       -1.3817769301        0.1421763537
 C         -0.3808316435       -1.4375612974        0.0574457087
 N         -1.2297362535       -2.5189346279        0.0333591007
 C         -2.4163844899       -2.0208472581       -0.0861089244
 N         -2.4356838070       -0.6544606004       -0.1300884310
 C         -1.1312156978       -0.2446337589       -0.0392396548
 C         -0.5364925690        1.0158739725       -0.0737681557
 C         -1.3240097658        2.2357810644       -0.2369948511
 C         -2.5072216093        2.4636748007        0.3205336272
 C          0.8650995782        1.0495330278        0.0075540487
 N          1.5106107324        2.2676980404       -0.0954289376
 H          4.9898523093       -0.8826704579       -0.1183704644
 H          3.5867614877       -1.7644053778       -0.8963114397
 H          3.4812569959        0.7280108147        0.8613339692
 H          1.5777430005       -2.2860095517        0.2470981101
 H         -3.3153467385       -2.6045329004       -0.1390661750
 H         -3.2351256855       -0.0612584078       -0.2727014001
 H         -0.8888504098        2.9909835387       -0.8813731732
 H         -2.9625528471        1.7680609155        1.0065497941
 H         -3.0505250397        3.3759129803        0.1406774695
 H          0.9923870062        3.0753364767        0.2066893688
 H          2.4844178685        2.2794150837        0.1567478953
  25
        -37.88727579
 C          3.9220986350        0.3052642391       -0.5204824738
 C          3.0683705154       -0.4819340864        0.1228190069
 C          1.6065595370       -0.3809335106        0.1168096108
 C          0.8966417495       -1.5702136227        0.0595749711
 C         -0.4879295721       -1.5266373851        0.0038707146
 N         -1.4126614998       -2.5425016778       -0.0471971980
 C         -2.5650165465       -1.9567443181       -0.0497751337
 N         -2.4863871061       -0.5924580715       -0.0127611478
 C         -1.1523164439       -0.2810490823        0.0223021370
 C         -0.4730232550        0.9327608400        0.1301176872
 C         -1.1968169442        2.1981003655        0.2250680022
 C         -2.2896621177        2.5061438688       -0.4622144491
 C          0.9294885497        0.8670621724        0.1794196005
 N          1.6632712991        2.0348731424        0.2369712058
 H          4.9839858944        0.1268020066       -0.4811029547
 H          3.5981458038        1.1218354745       -1.1431994724
 H          3.4525335364       -1.3338805694        0.6724161109
 H          1.4129292419       -2.5166799232        0.0372821394
 H         -3.5057580064       -2.4719571317       -0.0832409397
 H         -3.2494244282        0.0604653831        0.0407672096
 H         -0.8066040066        2.9245114970        0.9314505800
 H         -2.6953195173        1.8508615829       -1.2151791818
 H         -2.7961686711        3.4468902732       -0.3280345517
 H          1.1672804609        2.8514906139        0.5558094433
 H          2.5958462474        1.9365050181        0.6086415815
  25
        -37.88719320
 C          3.9146112668       -0.9185668575       -0.4369200835
 C          3.0893267818       -0.0963932073        0.1959747958
 C          1.6287182659       -0.1521230197        0.1114534335
 C          1.0050646260       -1.3866515546        0.0336328213
 C         -0.3803720688       -1.4378376313       -0.0000952153
 N         -1.2313853015       -2.5171975989       -0.0318551153
 C         -2.4224473100       -2.0160018787       -0.0001431659
 N         -2.4408017491       -0.6497025251        0.0439302326
 C         -1.1321197560       -0.2433556925        0.0425703263
 C         -0.5392597942        1.0173745884        0.1178626320
 C         -1.3416976753        2.2343334405        0.1995982841
 C         -2.4755535073        2.4511657731       -0.4559146995
 C          0.8652221893        1.0468486561        0.1416232932
 N          1.5130810965        2.2601788702        0.0624413674
 H          4.9824451645       -0.8556140845       -0.3138805810
 H          3.5534090205       -1.6762909064       -1.1108725112
 H          3.5091488532        0.6626283893        0.8483895760
 H          1.5832233291       -2.2956210947        0.0321933824
 H         -3.3244584529       -2.5972209689       -0.0117417001
 H         -3.2471049696       -0.0534578611        0.1191187008
 H         -0.9749066352        3.0052408397        0.8704835345
 H         -2.8643380508        1.7487474261       -1.1744193423
 H         -3.0364549993        3.3616550317       -0.3300069263
 H          0.9846744322        3.0776946476        0.3162176301
 H          2.4852272028        2.2788260111        0.3190730764
  25
        -37.88613968
 C          3.8905395242        0.1796592849        0.6640007454
 C          3.0738608438       -0.4350355861       -0.1805029171
 C          1.6047620616       -0.3553762264       -0.1681119073
 C          0.9074613164       -1.5516209013       -0.1788340783
 C         -0.4774233985       -1.5199686614       -0.1038340481
 N         -1.3949414210       -2.5432732212       -0.1069198458
 C         -2.5510258644       -1.9670518015       -0.0542327615
 N         -2.4814492995       -0.6028057645       -0.0022847475
 C         -1.1499059417       -0.2799974000       -0.0333806156
 C         -0.4788530805        0.9422623935       -0.0673882684
 C         -1.1918609910        2.2168861435       -0.0774959214
 C         -2.2954199843        2.4847040757        0.6105485686
 C          0.9227020830        0.8875574674       -0.1387917993
 N          1.6359946636        2.0634015594       -0.2660630074
 H          4.9580900100        0.0445336557        0.6173289818
 H          3.5295885814        0.8138445712        1.4587710918
 H          3.4870275452       -1.1130430704       -0.9178390632
 H          1.4316074766       -2.4931524102       -0.2189870449
 H         -3.4879158748       -2.4901940578       -0.0434966391
 H         -3.2492981837        0.0464530597       -0.0150577026
 H         -0.7676777318        2.9827476773       -0.7163738973
 H         -2.7298971443        1.7778736427        1.2985936167
 H         -2.7869288415        3.4403601104        0.5406426990
 H          1.2436615093        2.8855424379        0.1585099723
 H          2.6357702590        1.9767381643       -0.1881412348
  25
        -37.88600011
 C          3.9220175143        0.1332139402        0.5727887948
 C          3.0692219252       -0.4282508315       -0.2738185274
 C          1.6034969423       -0.3467279492       -0.2025282132
 C          0.8987019642       -1.5329338610       -0.3089698060
 C         -0.4820244482       -1.5073788994       -0.1713760304
 N         -1.3980152660       -2.5319459801       -0.1747933110
 C         -2.5419351584       -1.9695544618        0.0413470080
 N         -2.4662500167       -0.6119671850        0.1832445843
 C         -1.1437671384       -0.2798538508        0.0475351664
 C         -0.4686009583        0.9397319697        0.1179867501
 C         -1.1754884449        2.1937551121        0.3572938459
 C         -2.3683240965        2.5109237934       -0.1322660253
 C          0.9292326249        0.8906761942       -0.0216115418
 N          1.6387721352        2.0626567147       -0.1253975454
 H          4.9859137368       -0.0042942064        0.4769351230
 H          3.5969329189        0.7210424997        1.4171024110
 H          3.4511952856       -1.0651681056       -1.0626168681
 H          1.4148917371       -2.4673005351       -0.4615733887
 H         -3.4743188543       -2.4972897289        0.1016136093
 H         -3.2175376383        0.0206935453        0.3989882710
 H         -0.6753130221        2.9065423986        1.0055535751
 H         -2.8924431441        1.8720238848       -0.8234752366
 H         -2.8472598366        3.4450992458        0.1072620748
 H          1.2211146242        2.9048150785        0.2278603511
 H          2.6403943053        1.9969356756       -0.0768412107
