  29
        -43.53404159
 C         -0.8590397991       -3.4659195831        0.6720978590
 C         -1.2607208870       -2.4639028477       -0.0980580505
 C         -0.7003596869       -1.1135327018       -0.0910205547
 C         -1.5836552556       -0.0349023369       -0.0924002865
 O         -2.9104623866       -0.3534900944       -0.1279744083
 C         -3.8634131818        0.6800203873       -0.1423631061
 C         -1.1082311855        1.2790187485       -0.0246793317
 C          0.2398108273        1.5657875735        0.0431129810
 C          0.7615938710        2.9190337306        0.1471374932
 C          0.0567433080        4.0442925925        0.2026498883
 C          1.1680142304        0.4866004424        0.0012091813
 N          2.4828379060        0.7746921449        0.0387827668
 C          3.3513339807       -0.1922102329       -0.0376049795
 C          2.9954086395       -1.5409935171       -0.2005029105
 C          1.6671340277       -1.8653970669       -0.2300733841
 C          0.6914059772       -0.8530057841       -0.0880687654
 H         -1.3323046642       -4.4324035012        0.6296999470
 H         -0.0643860449       -3.3538597030        1.3913685541
 H         -2.1119304699       -2.5956646976       -0.7540901305
 H         -4.8308856038        0.1823357330       -0.1936407191
 H         -3.7459352673        1.3286277937       -1.0166988388
 H         -3.8190969790        1.2833625711        0.7701969068
 H         -1.8112841779        2.0953570003       -0.0087447975
 H          1.8412013107        2.9587086487        0.1790839104
 H         -1.0200439405        4.0711084906        0.1769134547
 H          0.5438666404        5.0012375656        0.2776228577
 H          4.3924932674        0.1026853912        0.0072056508
 H          3.7599208020       -2.2944587811       -0.3131507214
 H          1.3523404258       -2.8863932776       -0.3853861100
