  18
        -30.44729676
 C          3.2194138356       -0.6404243672       -0.0019464592
 C          1.8632227438       -0.0210981217       -0.0003527043
 C          1.6356975259        1.3199376936        0.0013520255
 S         -0.0293100265        1.7143002184        0.0023353957
 C         -0.4639497415        0.0206219487        0.0005814242
 C         -1.8724972727       -0.3906154650        0.0004772999
 O         -2.2313583454       -1.5401138902        0.0071791708
 O         -2.7857372092        0.5985449294       -0.0078178707
 C          0.6566876221       -0.7787034515       -0.0006121806
 C          0.6598843382       -2.2660939669       -0.0026155031
 H          3.9902402684        0.1254591431        0.0003851661
 H          3.3472470167       -1.2660883612       -0.8843500656
 H          3.3470249273       -1.2713899900        0.8766761006
 H          2.3570323567        2.1136353416        0.0022811935
 H         -2.3928609068        1.4815455446       -0.0131118116
 H         -0.3540608143       -2.6506396100       -0.0041484708
 H          1.1844590750       -2.6353418865        0.8781547881
 H          1.1868635072       -2.6330643732       -0.8829000181
  18
        -30.44198528
 C          3.2256165980       -0.5967524233       -0.1216345736
 C          1.8568615458       -0.0060549601       -0.0300655440
 C          1.6152554838        1.3288680620        0.1112511346
 S         -0.0485989474        1.7129458691        0.2008587384
 C         -0.4616816652        0.0394905691        0.0131943427
 C         -1.8994679081       -0.2544218613        0.0129287327
 O         -2.7160726298        0.5155526092        0.4430768725
 O         -2.2798373600       -1.4349698434       -0.5196489423
 C          0.6551924964       -0.7635658916       -0.0816690428
 C          0.6563815918       -2.2576338842       -0.1872555741
 H          3.9723792108        0.1920485569       -0.1366979141
 H          3.3275175495       -1.1920002357       -1.0278080815
 H          3.4238985815       -1.2409860245        0.7347607390
 H          2.3430946433        2.1141409924        0.1699847365
 H         -1.5389884674       -1.9232933723       -0.8996744934
 H         -0.1458386308       -2.7014217205        0.4002638029
 H          1.5983928392       -2.6494667936        0.1882583161
 H          0.5621745869       -2.5786473782       -1.2271840683
