  18
        -30.44729676
 C          3.2194138356       -0.6404243672       -0.0019464592
 C          1.8632227438       -0.0210981217       -0.0003527043
 C          1.6356975259        1.3199376936        0.0013520255
 S         -0.0293100265        1.7143002184        0.0023353957
 C         -0.4639497415        0.0206219487        0.0005814242
 C         -1.8724972727       -0.3906154650        0.0004772999
 O         -2.2313583454       -1.5401138902        0.0071791708
 O         -2.7857372092        0.5985449294       -0.0078178707
 C          0.6566876221       -0.7787034515       -0.0006121806
 C          0.6598843382       -2.2660939669       -0.0026155031
 H          3.9902402684        0.1254591431        0.0003851661
 H          3.3472470167       -1.2660883612       -0.8843500656
 H          3.3470249273       -1.2713899900        0.8766761006
 H          2.3570323567        2.1136353416        0.0022811935
 H         -2.3928609068        1.4815455446       -0.0131118116
 H         -0.3540608143       -2.6506396100       -0.0041484708
 H          1.1844590750       -2.6353418865        0.8781547881
 H          1.1868635072       -2.6330643732       -0.8829000181
