26
 energy: -39.883461386537 gnorm: 0.000054961471 xtb: 6.4.1 (23d549d)
C        -4.47441811030000    0.65512232430000   -0.45186674040000
C        -3.69757389880000   -0.41660124040000   -0.55145540420000
C        -2.28345160690000   -0.50483832830000   -0.20645013920000
C        -1.65733289280000   -1.75160497860000   -0.23113130940000
C        -0.32246089700000   -1.87472878600000    0.09668336270000
C         0.43262375760000   -0.76956759050000    0.46108341540000
C         1.89383269650000   -0.93205817130000    0.77300522770000
C         2.77632862210000   -0.24816628140000   -0.26509288640000
O         2.38992111570000    0.24357437520000   -1.28049145250000
O         4.09047159030000   -0.25124941430000    0.04404546480000
C        -0.17256419080000    0.49430228960000    0.47799329380000
C         0.58599362270000    1.69216686440000    0.84159461840000
C         0.41084283060000    2.88451097560000    0.29147261860000
C        -1.51876293430000    0.60251493110000    0.14842908920000
H        -5.51366093910000    0.62037405850000   -0.73077218140000
H        -4.11704390880000    1.60327140590000   -0.08849076120000
H        -4.12781572880000   -1.34263502200000   -0.91405898960000
H        -2.22390313150000   -2.62915702530000   -0.50794413820000
H         0.14331472520000   -2.85021073120000    0.06649506590000
H         2.15523696910000   -1.99498716960000    0.78085309800000
H         2.12985833430000   -0.51876080440000    1.75950477320000
H         4.27947931550000   -0.68668679940000    0.88544596220000
H         1.33987952590000    1.57129436810000    1.60981178090000
H        -0.29666303050000    3.04558007160000   -0.50371881110000
H         0.99283230330000    3.73814560540000    0.59404582140000
H        -1.97530813510000    1.57893460490000    0.18007678100000
