  46
        -62.55159820
 C         -8.0210515544        0.1556025922       -0.6106255583
 C         -7.1286070370       -0.2349213844        0.2917441329
 C         -5.6784330796       -0.1497711239        0.1808942379
 C         -4.8929004492       -0.5528180067        1.2628451488
 C         -3.5160261725       -0.4909312821        1.2088615130
 C         -2.8704008923       -0.0131315492        0.0714080531
 C         -1.3982988114        0.0292585583        0.0214787665
 C         -0.6945673501       -1.1401285534        0.2901033764
 C          0.6895919170       -1.2008837818        0.2629606578
 C          1.3746373312       -2.5094011276        0.5270667562
 C          1.3983658054       -0.0343912489       -0.0371106972
 C          2.8707315405        0.0083901091       -0.0802061926
 C          3.5234350821        0.4795543831       -1.2162495903
 C          4.9007294857        0.5406000029       -1.2618030817
 C          5.6792453335        0.1457692125       -0.1717634301
 C          7.1300194877        0.2320677789       -0.2731248525
 C          8.0157807293       -0.1059046957        0.6567623781
 C          5.0183240998       -0.3113981138        0.9696073333
 C          3.6415694603       -0.3810476199        1.0126197313
 C          0.6947672174        1.1346052805       -0.3072926694
 C         -0.6894876311        1.1953960347       -0.2801565882
 C         -1.3740232937        2.5040387174       -0.5449980035
 C         -3.6482811912        0.3820307269       -1.0143402444
 C         -5.0248323604        0.3130024288       -0.9623870610
 H         -9.0778583825        0.0514850080       -0.4334798640
 H         -7.7445405284        0.5933682354       -1.5544027886
 H         -7.4814216203       -0.6622701019        1.2231888758
 H         -5.3752930038       -0.9185615507        2.1589452275
 H         -2.9268383479       -0.8008392802        2.0603749727
 H         -1.2541584056       -2.0397824753        0.5079603898
 H          0.7678017422       -3.3326636205        0.1550660280
 H          1.5139976422       -2.6581708851        1.5982686511
 H          2.3508311472       -2.5457524650        0.0495177556
 H          2.9396998346        0.7844079107       -2.0733279675
 H          5.3889381432        0.9008250494       -2.1569882218
 H          7.4897157804        0.6159744446       -1.2207439543
 H          7.7327742835       -0.4944921685        1.6200244843
 H          9.0736129361       -0.0042186472        0.4844927790
 H          5.5867026768       -0.6144953355        1.8354448855
 H          3.1503499349       -0.7222516086        1.9120387438
 H          1.2544946105        2.0341079647       -0.5254699956
 H         -0.7657338970        3.3274532774       -0.1757018707
 H         -2.3492034733        2.5420815594       -0.0655061357
 H         -1.5153921683        2.6510569472       -1.6162091163
 H         -3.1630820317        0.7267628098       -1.9156573711
 H         -5.5988249588        0.6185599935       -1.8236730187
