  36
        -48.32848136
 C         -5.3524481779        0.8447136136        0.8249604148
 C         -3.9251772339        0.5507368295        0.4716900997
 C         -2.9338293813        1.5060897456        0.6031943317
 C         -1.6165318971        1.2209832630        0.2758587702
 C         -1.2708796921       -0.0372663461       -0.1915324265
 O         -0.0054658885       -0.4223300857       -0.5412297867
 C          1.0437722515        0.5062051898       -0.4090362044
 C          2.3278565496       -0.2004360877       -0.8833221899
 C          2.7639620608       -1.3029916875        0.0896995984
 C          3.4123006676       -0.7175454887        1.3424910505
 C          4.5316390010        0.2321398998        0.9245336084
 C          3.9649251610        1.2902055465       -0.0202664362
 O          3.3649978342        0.7164241097       -1.1637530432
 C         -2.2625154269       -1.0212597900       -0.3329394099
 C         -1.8782842072       -2.3768327963       -0.8394504697
 C         -3.5654529225       -0.7087773565        0.0000209394
 H         -5.4722002408        1.8821490692        1.1265365445
 H         -5.6800652767        0.2056680554        1.6445456564
 H         -6.0032406468        0.6522766200       -0.0269783358
 H         -3.1814557343        2.4936407003        0.9652116451
 H         -0.8722593510        1.9939705522        0.3877466842
 H          1.1318318835        0.8335158364        0.6349335384
 H          0.8740591977        1.3870250292       -1.0440788279
 H          2.0942605650       -0.6516156709       -1.8549876624
 H          3.4885134337       -1.9428146222       -0.4178774187
 H          1.8901746562       -1.9029785338        0.3437449289
 H          3.8081019356       -1.5222723746        1.9647430094
 H          2.6725875417       -0.1742047065        1.9345482516
 H          5.3095903712       -0.3286949624        0.4030699696
 H          4.9766549939        0.7195637658        1.7928832442
 H          4.7592436667        1.9299225240       -0.4120285909
 H          3.2435044373        1.9222874649        0.5178173039
 H         -1.3860527989       -2.2883392403       -1.8063591329
 H         -2.7514262649       -3.0159975063       -0.9380608136
 H         -1.1697466000       -2.8446251694       -0.1573392756
 H         -4.3291282027       -1.4662940325       -0.1096956284
