  21
        -30.95866091
 C          3.6668216819        0.0107578319        0.2869491195
 C          2.4753233183        0.4845623822       -0.0567221396
 C          1.2289482430       -0.2740915808       -0.0603017011
 C          1.2019718264       -1.6664141652       -0.0714208569
 C         -0.0000774975       -2.3501408952       -0.0794432085
 C         -1.2020664118       -1.6663254701       -0.0713863244
 C         -1.2289671223       -0.2740018029       -0.0602013790
 C         -2.4753027798        0.4847444113       -0.0565104653
 C         -3.6669563879        0.0109238218        0.2868229532
 C          0.0000186685        0.4124103147       -0.0667932107
 C          0.0000417200        1.8254659802       -0.0564484255
 N          0.0002586559        2.9734675405       -0.0523691722
 H          4.5413348211        0.6376178504        0.2698052563
 H          3.8196804462       -1.0048118428        0.6114769421
 H          2.3805231305        1.5255114023       -0.3393241024
 H          2.1292175101       -2.2167247118       -0.0955064705
 H         -0.0001287590       -3.4301573260       -0.0994603315
 H         -2.1293427478       -2.2165801814       -0.0955426289
 H         -2.3803899494        1.5258130273       -0.3388012378
 H         -3.8200640855       -1.0047031774        0.6107828439
 H         -4.5415083399        0.6377163438        0.2693536946
