  26
        -48.71263313
 C          1.8963371423       -3.8305292936       -0.3604455240
 C          1.1370264023       -3.1892695957        0.5157527993
 C          0.7438493669       -1.7796717735        0.4168269843
 C         -0.5819578744       -1.4678207236        0.5952963103
 C         -1.0862429026       -0.1625382300        0.4280686270
 C         -2.5170061542        0.0664321265        0.6068854265
 C         -3.2698798765        0.9030108658       -0.0897212516
 F         -2.9053259338        1.6588123663       -1.1104341545
 F         -4.5747027819        1.0562982225        0.1263293828
 C         -0.1874802416        0.8327511425        0.1182609840
 F         -0.6111260132        2.1077415217        0.0034298837
 C          1.1940914326        0.5881852155       -0.0256678403
 C          2.0980841454        1.6336941762       -0.3095009101
 C          3.4371496617        1.3830247742       -0.4107231165
 C          3.9245617104        0.0844872433       -0.2075268320
 C          3.0675149651       -0.9482721274        0.0596924589
 C          1.6752965044       -0.7395410649        0.1327266656
 H          2.1180819848       -4.8787542141       -0.2529436263
 H          2.3028970047       -3.3411693190       -1.2297804358
 H          0.6983100397       -3.7311097076        1.3447789175
 H         -1.2834770106       -2.2548283572        0.8316918360
 H         -3.0193593655       -0.5231345296        1.3589784180
 H          1.7089168060        2.6323257807       -0.4379739938
 H          4.1265981599        2.1844158767       -0.6295186246
 H          4.9882466761       -0.0961256680       -0.2562274492
 H          3.4565391849       -1.9381420705        0.2393323344
