  30
        -49.78036094
 C         -1.3929260875        1.2396275056        2.1392851954
 C         -2.2499473441        0.5468999640        1.4032213209
 C         -1.9074591093       -0.3936591724        0.3361650678
 C         -2.6987053425       -1.5334590777        0.1941754746
 C         -2.4076161623       -2.5011241784       -0.7464594837
 C         -1.3176706753       -2.3373293582       -1.5851660271
 C         -0.5360903887       -1.2032304589       -1.4749386733
 C         -0.8139331898       -0.2256358692       -0.5241774418
 C          0.0087423470        0.9992050638       -0.5281756823
 C         -0.6115804155        2.2223594172       -0.7698403233
 C          0.1223224152        3.3859927073       -0.8877238069
 C          1.5038527000        3.3430684313       -0.7830908962
 C          2.1352391447        2.1369629925       -0.5555281483
 C          1.4040393902        0.9578592545       -0.4108800203
 C          2.1521583399       -0.2728482585       -0.1448972109
 C          1.8306624975       -1.2360744692        0.7008897984
 F          0.7753467936       -1.2959966890        1.5009419698
 F          2.5851855545       -2.3183403314        0.8968918607
 H         -1.7300454729        1.8843834860        2.9333026030
 H         -0.3287130195        1.1780730389        1.9952030555
 H         -3.3094684475        0.6082452651        1.6240341765
 H         -3.5460753476       -1.6640217069        0.8523621571
 H         -3.0293629274       -3.3803330572       -0.8285504845
 H         -1.0824960931       -3.0850796577       -2.3279262619
 H          0.2994029073       -1.0573932659       -2.1457492005
 H         -1.6861989746        2.2463528906       -0.8745210135
 H         -0.3791916599        4.3237847051       -1.0739831054
 H          2.0863620045        4.2464135438       -0.8841682673
 H          3.2118615205        2.0989944026       -0.4720543194
 H          3.0992165445       -0.3879782666       -0.6526049742
