20
 energy: -30.398478178600 gnorm: 0.000051152790 xtb: 6.4.1 (23d549d)
C         3.77245509810000   -0.39796886800000    0.04710927580000
C         2.59532873340000   -1.00672877530000   -0.02055882370000
C         1.32153743100000   -0.30043317400000   -0.02527200420000
C         0.10758642920000   -1.00424054570000   -0.10171004780000
C        -1.07936277370000   -0.29926311630000   -0.09454128070000
C        -2.38527619330000   -0.93814735990000   -0.21388986840000
C        -2.66959330570000   -2.15374650040000    0.23471411670000
C        -0.94840952560000    1.11267672220000    0.01011465410000
N        -2.02702751350000    1.94746337540000    0.02221005740000
N         0.24078931650000    1.70788556080000    0.04884003820000
N         1.33953896250000    1.02679086160000    0.02524356250000
H         4.69859483850000   -0.94662350520000    0.04972187850000
H         3.82562921280000    0.67536371810000    0.10082953390000
H         2.52644928810000   -2.08617844520000   -0.07498366840000
H         0.10770540690000   -2.08035730760000   -0.19911959430000
H        -3.15004227580000   -0.35221648520000   -0.70831672460000
H        -1.94133416430000   -2.75653204050000    0.75115647650000
H        -3.64801322740000   -2.58620657430000    0.11491134860000
H        -2.91052977850000    1.59681606510000    0.34837152630000
H        -1.81252267850000    2.90815232630000    0.23401393790000
