  51
        -58.13340483
 C         -3.7310821712       -1.4779577686        0.8070038977
 C         -4.2299371323       -1.1707971616       -0.6001390920
 C         -5.1730993268        0.0324263214       -0.6600918896
 C         -4.5524996146        1.3587692425       -0.2175700235
 C         -3.3889288605        1.8009068800       -1.1020429003
 C         -2.9070507472        3.2199794218       -0.7967347895
 C         -2.3884675643        3.4316919197        0.6281880030
 C         -1.2655164102        2.4858440506        1.0557474718
 C         -0.0028141358        2.6104523291        0.2069839542
 C          1.1064644674        1.6937583836        0.7160797649
 C          2.3754653811        1.8053265479       -0.1239742495
 C          3.4785273446        0.8595611832        0.3674917556
 C          3.0753696400       -0.5779019953        0.2435965828
 C          2.5832442177       -1.3403058436        1.3389999320
 C          2.2386748325       -2.6117551160        1.0201578252
 C          1.6910541210       -3.6788899995        1.8996001055
 S          2.5167554470       -2.9151327352       -0.6678858478
 C          3.1002885093       -1.2942721252       -0.9144463948
 C          3.5262620217       -0.8684986614       -2.2758221504
 H         -3.1514945816       -2.3986563830        0.8086508864
 H         -4.5689951008       -1.5988110295        1.4906219438
 H         -3.0947595418       -0.6802388438        1.1814419289
 H         -4.7690128733       -2.0425694694       -0.9798830232
 H         -3.3771809809       -1.0050367202       -1.2604577878
 H         -6.0399925168       -0.1730352532       -0.0263781973
 H         -5.5345222300        0.1380105046       -1.6864801329
 H         -4.2215955319        1.2747265534        0.8174867867
 H         -5.3297685165        2.1271014847       -0.2510675329
 H         -3.7096308530        1.7666421617       -2.1469663500
 H         -2.5559119780        1.1064172898       -0.9940319000
 H         -3.7338092864        3.9162470235       -0.9616496387
 H         -2.1196800895        3.4808790582       -1.5071033492
 H         -3.2183698476        3.3242274647        1.3297179300
 H         -2.0289342726        4.4610864138        0.7083274382
 H         -1.6180217855        1.4535746405        1.0234069424
 H         -1.0115360529        2.7067853836        2.0961780292
 H          0.3436012174        3.6469511085        0.2230707232
 H         -0.2264767423        2.3507761819       -0.8291262575
 H          0.7540805593        0.6598624952        0.6974927374
 H          1.3375555840        1.9459217043        1.7542089821
 H          2.7454843391        2.8328586564       -0.0870274659
 H          2.1415243472        1.5719911576       -1.1646625163
 H          3.6990347412        1.0785263278        1.4141333664
 H          4.3864635718        1.0406505215       -0.2133807375
 H          2.4950279244       -0.9405875775        2.3344656493
 H          1.5918172428       -3.3055481194        2.9162582212
 H          2.3482734031       -4.5483079217        1.9065463644
 H          0.7121342859       -4.0044823461        1.5476266670
 H          3.9543460280       -1.7078545512       -2.8201923533
 H          4.2670827192       -0.0739237731       -2.2111351016
 H          2.6759099395       -0.4956193326       -2.8493884754
