22
 energy: -29.878087139336 gnorm: 0.000109287434 xtb: 6.4.1 (23d549d)
C        -3.85122151420000    0.43438514820000    0.25480782970000
C        -2.97942243130000   -0.53881313810000    0.01817730600000
C        -1.53229743960000   -0.40471431490000   -0.04201145520000
C        -0.73293867890000   -1.54428021850000   -0.17687532090000
N         0.57768860940000   -1.51658081060000   -0.22520048010000
C         1.22474385950000   -0.35301433860000   -0.12803079140000
C         2.67935538890000   -0.50059150450000   -0.16172636810000
C         3.57572236550000    0.23362952030000    0.48348180060000
C         0.53080696660000    0.86616280320000   -0.04051475880000
C         1.20945888720000    2.20126174760000   -0.03822199060000
C        -0.85442630770000    0.81284068420000    0.00154384380000
H        -4.90987416880000    0.24243308100000    0.28651075230000
H        -3.55247830970000    1.45376719530000    0.43089652210000
H        -3.34161953230000   -1.54780942350000   -0.13868723080000
H        -1.18149338500000   -2.52774012690000   -0.25236381750000
H         3.00136618770000   -1.36234117940000   -0.73187463790000
H         3.30933073490000    1.05473058460000    1.12506892570000
H         4.62735603730000    0.01002991950000    0.41611317340000
H         2.12621327170000    2.17297895570000   -0.62233337150000
H         1.45896843200000    2.50162405000000    0.97948622980000
H         0.54607886790000    2.95773846040000   -0.45392743620000
H        -1.41002314370000    1.73832818200000    0.05732826370000
