26
 energy: -48.717438840204 gnorm: 0.000037417300 xtb: 6.5.0 (unknown)
C            0.19226189360000       -3.78417054150000        0.32430915900000
C            0.94495167280000       -2.85150726320000       -0.24257819270000
C            0.70270449770000       -1.41223879230000       -0.12983905290000
C           -0.58909241520000       -0.94319753310000       -0.11625576650000
C           -0.89620851220000        0.43146454830000       -0.04790090190000
C           -2.25082224960000        0.95611329940000       -0.03506242240000
C           -3.39064195290000        0.28225272930000        0.00124932400000
F           -3.56461002620000       -1.03409087410000        0.03577470460000
F           -4.58257076110000        0.87308363520000        0.01230748470000
C            0.16374976720000        1.31518616380000       -0.00669279930000
F           -0.08533050770000        2.64362555160000        0.04307533470000
C            1.50914362490000        0.90106220580000       -0.00829385300000
C            2.56874980460000        1.83118706410000        0.05301995490000
C            3.86546776280000        1.40221500690000        0.07434759950000
C            4.15023507460000        0.03018103930000        0.04392120870000
C            3.13996848220000       -0.89124715220000       -0.01962992820000
C            1.78933708670000       -0.49108911920000       -0.06238645120000
H            0.40113690430000       -4.83233007070000        0.19643378520000
H           -0.64859248650000       -3.53795202940000        0.95064429310000
H            1.79648983870000       -3.14512720410000       -0.84140917050000
H           -1.39538266570000       -1.65322831630000       -0.18797196030000
H           -2.34901236770000        2.03219394860000       -0.04784821810000
H            2.33189911590000        2.88386896330000        0.08784483510000
H            4.67493230320000        2.11490977400000        0.12175971750000
H            5.17861159000000       -0.29823551220000        0.07485128280000
H            3.38028218130000       -1.94276206370000       -0.02535519020000
