26
 energy: -46.996800484640 gnorm: 0.000174389954 xtb: 6.4.1 (23d549d)
C        -3.08591849160000   -1.98795996190000   -0.87588240640000
C        -1.94302885460000   -2.08544655820000   -0.20826228630000
C        -0.98102595750000   -0.99675688820000   -0.03899290270000
C         0.37913365360000   -1.30105010950000   -0.03204792120000
C         1.35320800520000   -0.31473638960000    0.03216690760000
C         2.77752094690000   -0.75690745810000    0.17252596340000
O         3.47661664550000   -0.47049911180000    1.09960142000000
O         3.21377896080000   -1.57816578640000   -0.80578299990000
C         0.98566165270000    1.03813604280000    0.06689304220000
C         1.95683498470000    2.12651042380000    0.04441059050000
C         3.11449458740000    2.10714589100000   -0.60143738140000
C        -0.37403313330000    1.34005305520000    0.09698541870000
C        -1.34849484140000    0.35378728940000    0.06515255490000
C        -2.76683919350000    0.81519811000000    0.20005176870000
O        -3.22642144290000    1.71889745030000   -0.43785638340000
O        -3.49041373600000    0.19784185550000    1.15304728200000
H        -3.73907800610000   -2.83460923770000   -0.99699592210000
H        -3.40650387370000   -1.06818638040000   -1.33661505370000
H        -1.63116990560000   -3.04156682400000    0.19414593450000
H         0.67663751360000   -2.34134955900000   -0.06330092060000
H         2.54430922200000   -1.73083996190000   -1.48636862220000
H         1.64519428120000    3.02399291590000    0.56213702210000
H         3.45016031070000    1.25704055370000   -1.17131309300000
H         3.77509843740000    2.95623431500000   -0.58993891750000
H        -0.69076561990000    2.37136699180000    0.14718854260000
H        -3.00872773430000   -0.52547773710000    1.57562689160000
