19
 energy: -35.167666089588 gnorm: 0.000044103960 xtb: 6.4.1 (23d549d)
C        -2.50445557050000    2.62834852910000   -0.05321648480000
C        -2.86086808450000    1.35356533330000    0.04438965840000
C        -1.96502760710000    0.20420643630000    0.02349070490000
C        -2.50262624360000   -1.08719496970000   -0.00025703040000
N        -1.77450068570000   -2.18698028590000   -0.02293651940000
C        -0.46250648400000   -2.07155478820000   -0.02179381810000
C         0.20799092020000   -0.84217886490000    0.00363150780000
C         1.66165553650000   -0.84487101580000    0.00576279440000
C         2.48062575690000    0.19628108970000    0.00190945160000
F         2.15991674430000    1.48434104110000   -0.00417473950000
F         3.80564569510000    0.08224233790000    0.00211184400000
C        -0.57511139920000    0.31020850770000    0.02870147600000
H        -3.23813690620000    3.41554177260000   -0.03302437270000
H        -1.48044277480000    2.94266394700000   -0.16107748270000
H        -3.90960707360000    1.10067225910000    0.13889974120000
H        -3.57475175780000   -1.23819792450000   -0.00272285170000
H         0.09023936870000   -3.00190473570000   -0.04000494030000
H         2.14044730720000   -1.81337609110000    0.00732764860000
H        -0.11371010040000    1.28312255310000    0.05952649690000
