  22
        -29.88081398
 C         -3.8610982138       -0.2970550992        0.1367427769
 C         -2.9011269816        0.6137515155        0.0326118768
 C         -1.4662178818        0.3642151500       -0.0202753713
 C         -0.8919927732       -0.9079521412        0.0041996644
 C          0.4843634410       -1.0542721280       -0.0346474816
 C          1.1042033524       -2.4167015973        0.0169174929
 C          1.2722638946        0.1067122570       -0.1036218892
 C          2.7282936316        0.0474013195       -0.1552550026
 C          3.5398363848        0.9812154075        0.3243689391
 C          0.5965265287        1.3291227886       -0.1436988554
 N         -0.7092968364        1.4612643793       -0.1000538378
 H         -4.8990553064       -0.0133639994        0.1697133023
 H         -3.6616372839       -1.3538713162        0.1943530459
 H         -3.1502637123        1.6650210096       -0.0187824843
 H         -1.5190034761       -1.7845330034        0.0591867143
 H          0.3428543106       -3.1783762765        0.1665261751
 H          1.8263134599       -2.4782442963        0.8296436628
 H          1.6267807098       -2.6323798894       -0.9151850166
 H          3.1492672374       -0.8358729994       -0.6179821861
 H          3.1699118433        1.8610015851        0.8233099973
 H          4.6100514022        0.8896610895        0.2503865306
 H          1.1515075144        2.2540801707       -0.2340683157
  22
        -29.87900702
 C         -3.8247438041       -0.4776502956        0.2483493201
 C         -2.9566530324        0.4997648971        0.0184859169
 C         -1.5056672186        0.3771538900       -0.0462152594
 C         -0.8164341748       -0.8296285313        0.0611717928
 C          0.5695851475       -0.8621243526        0.0002025297
 C          1.2725971289       -2.1821249551        0.0738775804
 C          1.2457606220        0.3553009703       -0.1680870120
 C          2.6963340426        0.5145672789       -0.2293986549
 C          3.5902923976       -0.1248342871        0.5127871403
 C          0.4567028560        1.5033343211       -0.3041658600
 N         -0.8532972831        1.5272057773       -0.2395673831
 H         -4.8839296104       -0.2879573978        0.2809941325
 H         -3.5254272428       -1.4987714551        0.4151672560
 H         -3.3036211946        1.5124112434       -0.1366430321
 H         -1.3599604960       -1.7542776637        0.1809002872
 H          0.6367663761       -2.9678786197       -0.3296311932
 H          1.4950325019       -2.4347731748        1.1106832832
 H          2.2075956476       -2.1581738621       -0.4807150771
 H          3.0320739998        1.2802954546       -0.9192801441
 H          3.3136138661       -0.8511101533        1.2566810953
 H          4.6430098931        0.0844700273        0.4229628958
 H          0.9302673950        2.4652568833       -0.4620764878
