29
 energy: -37.047828200880 gnorm: 0.000138183822 xtb: 6.4.1 (23d549d)
C        -4.26775691110000   -1.39571553880000   -0.17215364000000
C        -3.05527502970000   -1.75873466380000    0.23753738810000
C        -1.90449836690000   -0.90014417670000    0.27310450540000
C        -0.63959956450000   -1.23001726510000    0.68757967580000
C         0.28643982740000   -0.17331995060000    0.61675930530000
C         1.72860466340000   -0.33334591170000    0.98440334980000
C         2.58476476930000   -0.61555875020000   -0.25599576050000
C         4.06044600070000   -0.77890753550000    0.09730472260000
C         4.90920589150000   -1.05464641790000   -1.13760876900000
C        -0.27785335430000    0.98703842300000    0.12989012820000
C         0.36113673470000    2.25567078810000   -0.08286986840000
C        -0.22900891440000    3.33034443610000   -0.60024997780000
S        -1.96729602620000    0.76147418590000   -0.22869448010000
H        -5.09416525130000   -2.08394259480000   -0.17574364650000
H        -4.46562527530000   -0.39415840410000   -0.51671394690000
H        -2.87291745170000   -2.76957632180000    0.58098833260000
H        -0.38252747860000   -2.21393566990000    1.04108198420000
H         1.82745137760000   -1.16521766830000    1.68504449980000
H         2.09601712550000    0.56750685550000    1.48067591690000
H         2.46803691390000    0.20499593220000   -0.96785402460000
H         2.22251562180000   -1.52538355640000   -0.74051825140000
H         4.17351780830000   -1.60190160490000    0.80709648690000
H         4.41732124620000    0.13057464190000    0.58688953150000
H         4.58369701400000   -1.96970336760000   -1.62771608170000
H         5.95646503930000   -1.16456190930000   -0.86571089820000
H         4.82315055500000   -0.23683807000000   -1.84992876920000
H         1.40207250860000    2.30144874460000    0.20932615550000
H        -1.26218727180000    3.31185222080000   -0.90551497990000
H         0.30076714370000    4.25673943140000   -0.73467782650000
