27
 energy: -49.339276282225 gnorm: 0.000049553789 xtb: 6.5.0 (unknown)
C           -3.33185848510000       -2.01087605050000        0.87296838150000
C           -3.14067191490000       -0.91609132970000        0.14954908670000
C           -1.89438382160000       -0.15070756180000        0.07863825960000
C           -1.98612262110000        1.22908600650000       -0.09658976690000
C           -0.84643974940000        2.01099367910000       -0.11678085600000
Cl          -0.99154614240000        3.72072359830000       -0.31864894320000
C            0.40831111480000        1.44871429910000        0.02645982560000
C            0.53190834230000        0.06774434420000        0.17017979160000
C            1.81515832180000       -0.60084036190000        0.31717943230000
C            3.02943473920000       -0.08883263330000        0.19162415800000
F            3.36580668570000        1.15987932750000       -0.10644821030000
F            4.13897661440000       -0.80717283140000        0.34698294700000
C           -0.62471743940000       -0.73382048860000        0.19155498400000
O           -0.47399484920000       -2.09597422880000        0.32125222490000
C           -0.61689210220000       -2.82039707350000       -0.89575802770000
C           -0.51576074950000       -4.30234507360000       -0.57956785760000
H           -4.28898476060000       -2.50399474180000        0.89855670530000
H           -2.54573314830000       -2.44376834210000        1.46660942240000
H           -3.96468241710000       -0.48617730200000       -0.40704764860000
H           -2.95688245070000        1.68978371050000       -0.19611646630000
H            1.27855056720000        2.08264276030000        0.02113314640000
H            1.76757099470000       -1.65269296850000        0.55955160130000
H            0.17848723810000       -2.51961331850000       -1.59400937430000
H           -1.58610694460000       -2.59046502390000       -1.35762337460000
H            0.43485579250000       -4.51790595880000       -0.09936688620000
H           -0.59053688130000       -4.87932619410000       -1.49666716050000
H           -1.31781858620000       -4.59472900360000        0.09222086220000
