  21
        -32.50270497
 C          3.1883074779        1.3248456834        0.4554020304
 C          2.0064486434        0.4394788636        0.2102110021
 C          2.1716705300       -0.8998626436       -0.1250136525
 C          1.0774002346       -1.7132950894       -0.3455978684
 C         -0.2220372959       -1.2243294882       -0.2703328143
 C         -1.3713400007       -2.1711627502       -0.4767319004
 C         -0.3919770855        0.1287737215        0.0395189548
 C         -1.7222707933        0.7980067966        0.1409561288
 O         -2.0020942076        1.5799764198        1.0059585001
 O         -2.6068232713        0.5143868047       -0.8385676464
 C          0.7155102842        0.9334088049        0.2968649427
 H          4.0046437690        0.7647122754        0.9054900507
 H          2.9220563046        2.1519779892        1.1082494791
 H          3.5446305122        1.7390813381       -0.4883522642
 H          3.1672648679       -1.3134082800       -0.1968513713
 H          1.2292745430       -2.7581310781       -0.5762929964
 H         -1.0976540485       -3.1612548988       -0.1174782651
 H         -1.6126603220       -2.2700726948       -1.5375671126
 H         -2.2622225777       -1.8510835802        0.0586070498
 H         -2.2428005233       -0.1015472938       -1.4874106043
 H          0.5421311741        1.9652225408        0.5649097873
