  41
        -49.70466926
 C         -6.0074396415        0.4390908269        1.3585615924
 C         -4.8573439068        1.0728874651        1.1460005352
 C         -3.7452623630        0.5400310200        0.4097197194
 C         -2.5459512188        1.1572441558        0.1623843546
 C         -1.6453849011        0.3883641369       -0.5972110348
 C         -0.2678120350        0.8613062680       -0.9418687729
 C          0.7618388492        0.3317279739        0.0634898053
 C          2.1716665371        0.8185682904       -0.2585309502
 C          3.1998926024        0.2919420213        0.7395241015
 C          4.6088530106        0.7908927495        0.4276988568
 C          5.6345099406        0.2510874215        1.4220724158
 C          7.0380552843        0.8215532217        1.2159203821
 C          7.6835874033        0.3732181900       -0.0901380490
 C         -2.1611292843       -0.8464285653       -0.9304226326
 C         -1.5280869357       -1.8908046084       -1.6863859688
 C         -2.0622130526       -3.0840423748       -1.9349197342
 S         -3.7751800751       -1.0421954473       -0.3059784612
 H         -6.8077627926        0.8895986581        1.9181410364
 H         -6.1790253839       -0.5527973236        0.9741539282
 H         -4.7005771152        2.0702359384        1.5381235622
 H         -2.3185927873        2.1480311724        0.5170372012
 H         -0.2525481430        1.9531696359       -0.9283828975
 H          0.0060650717        0.5350399611       -1.9473966756
 H          0.7407949197       -0.7605488721        0.0582514757
 H          0.4821977119        0.6608317951        1.0670793905
 H          2.1877392673        1.9112759757       -0.2502317436
 H          2.4458723654        0.4930762825       -1.2652200318
 H          3.1916443691       -0.8006121021        0.7234362587
 H          2.9185752316        0.6078590648        1.7470699637
 H          4.6191312266        1.8832802662        0.4574252604
 H          4.8774037136        0.4828468899       -0.5841373146
 H          5.6738777173       -0.8380794282        1.3447548235
 H          5.3028839544        0.4969520102        2.4342183822
 H          7.6689975773        0.5004921880        2.0483618315
 H          6.9901363915        1.9127454582        1.2407337816
 H          7.7007449713       -0.7128617682       -0.1522142160
 H          8.7074827080        0.7357149816       -0.1489833485
 H          7.1391092676        0.7591692116       -0.9478611479
 H         -0.5419662686       -1.6532303005       -2.0632591269
 H         -3.0395169591       -3.3498319926       -1.5672537250
 H         -1.5404632662       -3.8285093941       -2.5097399317
