  24
        -40.17869867
 C         -5.6721447074       -0.8698536931       -0.0258182184
 C         -4.8229248146        0.1516445636       -0.0008369439
 C         -3.3696658700        0.0778574376        0.0041424986
 C         -2.6300258334        1.2636516222        0.0106897437
 C         -1.2534423905        1.2450832577        0.0125830761
 C         -0.5443569466        0.0383465934        0.0092839433
 C          0.9018371260        0.0841327900        0.0087551249
 C          1.7320932347       -0.9731520507        0.0131901321
 C          3.1727419141       -0.9248219126        0.0096072970
 C          3.9591313820        0.1463527953       -0.0053807010
 F          3.5950360695        1.4239270204       -0.0199383250
 F          5.2898360481        0.0754359240       -0.0084130597
 C         -1.2864201474       -1.1483126883        0.0049147982
 C         -2.6627385327       -1.1279022441        0.0022737944
 H         -6.7367976093       -0.7109618076       -0.0283447709
 H         -5.3509284458       -1.8970378601       -0.0455454583
 H         -5.2199310547        1.1597505813        0.0160301630
 H         -3.1510418675        2.2109419661        0.0131359857
 H         -0.7058854383        2.1769802310        0.0167252676
 H          1.3171528741        1.0821387831        0.0040074528
 H          1.3295114871       -1.9753649315        0.0203321126
 H          3.6958628466       -1.8698195426        0.0189352293
 H         -0.7793326361       -2.1009312172        0.0027300531
 H         -3.2002098559       -2.0635996720       -0.0008426706
