  36
        -54.50708829
 C         -5.6990945056       -0.0023814162        0.5432598904
 C         -4.2155994313        0.0090737286        0.3308745188
 C         -3.5006715872        1.1937794233        0.2378612324
 C         -2.1355108734        1.1992049423        0.0266513815
 C         -1.4290292150        0.0037947610       -0.1160621645
 N         -0.0503518445        0.0009422864       -0.3102850737
 C          0.7153628060        1.1809416537       -0.3570337920
 C          1.8178063319        1.3237477196        0.4843209707
 S          2.2454668633       -0.0036235855        1.5812736831
 C          1.8131914159       -1.3287925962        0.4834508951
 C          0.7108943247       -1.1818521607       -0.3574241452
 C          0.4335891711       -2.1901467251       -1.2762494383
 C          1.1914771586       -3.3465800861       -1.2956182796
 C          2.2542660086       -3.5018365374       -0.4199935467
 C          2.5782587993       -2.4834132799        0.4574801954
 C          2.5867286283        2.4758271819        0.4592655717
 C          2.2665675774        3.4956976084       -0.4179222558
 C          1.2038973433        3.3442367120       -1.2943507160
 C          0.4421017637        2.1903595615       -1.2758060021
 C         -2.1395588257       -1.1907035605        0.0289552118
 C         -3.5026855455       -1.1801196338        0.2402940511
 H         -6.0846552523        1.0092522006        0.6421820406
 H         -5.9515869044       -0.5606849131        1.4440714626
 H         -6.2001176417       -0.4834131563       -0.2966587209
 H         -4.0154978619        2.1388217872        0.3392735142
 H         -1.6170004071        2.1446627338       -0.0005330589
 H         -0.3832566529       -2.0584989539       -1.9699011987
 H          0.9540129865       -4.1270024531       -2.0026719394
 H          2.8410743590       -4.4073324720       -0.4315069872
 H          3.4158044173       -2.5752112992        1.1316485432
 H          3.4242447174        2.5645269906        1.1338821343
 H          2.8563045581        4.3992962204       -0.4286563837
 H          0.9695103115        4.1256576128       -2.0013224397
 H         -0.3746519101        2.0616219832       -1.9700923233
 H         -1.6230290040       -2.1373333930        0.0034406340
 H         -4.0238479494       -2.1213426875        0.3446274658
