  22
        -42.56017506
 C          4.5353764210       -0.3867585208        0.0557120799
 C          3.3546690557       -0.9947602879        0.0731601019
 C          2.0891984712       -0.2793542861        0.0018853989
 C          0.8757480679       -0.9747365529        0.0215584823
 C         -0.3086293814       -0.2613252006       -0.0371466430
 C         -1.6207139668       -0.9984986572        0.0086304956
 F         -1.4714468881       -2.3135607483        0.2202512548
 F         -2.4319981836       -0.5529552468        0.9841800343
 F         -2.3160640345       -0.8851694613       -1.1401903422
 C         -0.2834515120        1.1383748429       -0.1178363420
 C         -1.4925220122        1.9485814953       -0.1871924093
 C         -1.5869259513        3.1844032543        0.2876996984
 C          0.9932830653        1.7182010100       -0.1457274718
 N          2.1186334699        1.0510904860       -0.0849470821
 H          5.4594127667       -0.9354836758        0.1101092749
 H          4.5938103266        0.6856604124       -0.0146015738
 H          3.2796067823       -2.0714765132        0.1428977548
 H          0.8648971617       -2.0515649671        0.0886012117
 H         -2.3549043037        1.4881332588       -0.6488636383
 H         -0.7689595278        3.6720941656        0.7905434025
 H         -2.5030004964        3.7430706042        0.2098765545
 H          1.0939402808        2.7908796472       -0.2411542950
