19
 energy: -30.941819466790 gnorm: 0.000188352807 xtb: 6.4.1 (23d549d)
C         3.51986578600000    1.06565807380000   -0.05196188030000
C         2.89447749020000   -0.10274646440000    0.02178099540000
C         1.45307767710000   -0.31650575730000    0.01261052350000
C         0.95512180580000   -1.62125010180000    0.04878672010000
N        -0.33287867130000   -1.91041380580000    0.03692057420000
C        -1.18499571600000   -0.91845507280000   -0.00818328670000
F        -2.47921914890000   -1.27475650890000   -0.01506058560000
C        -0.84914783440000    0.44245596310000   -0.04277990500000
C        -1.89263354400000    1.45867940350000   -0.09037725400000
C        -1.71818831530000    2.75704874160000    0.12110899420000
C         0.51537587930000    0.71608541540000   -0.03556498440000
H         4.59429784800000    1.12458005520000   -0.03929753950000
H         2.99924008510000    2.00464688740000   -0.13075358240000
H         3.47828446870000   -1.01172184440000    0.09455349520000
H         1.61980526120000   -2.47384099640000    0.08442796200000
H        -2.88380398400000    1.07904755070000   -0.29963459080000
H        -0.75971406710000    3.18592382680000    0.35967474880000
H        -2.54402374420000    3.44498825290000    0.07269004650000
H         0.84551978160000    1.74151866760000   -0.07794099360000
