  45
        -51.80840720
 C         -4.4453618387       -0.9906886852       -0.4981910785
 C         -3.2448849361       -0.1738688113       -0.9603829598
 C         -2.8817542017        0.9232844598        0.0374400258
 C         -1.7199778053        1.7835643149       -0.4540648026
 C         -1.2861522204        2.7990779405        0.6010275118
 C         -0.1995668673        3.7676896161        0.1248187088
 C          1.0446009856        3.0979062944       -0.4626427294
 C          1.6853749041        2.0822286324        0.4784857719
 C          2.8569216924        1.3471834831       -0.1729294893
 C          3.1313367321        0.0018000260        0.5135586994
 C          1.9456753740       -0.9084398389        0.3960396148
 C          1.0295216948       -1.1275599531        1.4628414952
 C         -0.0190403679       -1.9236948147        1.1404453971
 C         -1.1542072060       -2.3651030959        1.9934744919
 S          0.0942450294       -2.4426787286       -0.5133731352
 C          1.5758124880       -1.5587766595       -0.7421116393
 C          2.2428161484       -1.5854025232       -2.0726877954
 H         -4.6694588789       -1.7801203627       -1.2118268541
 H         -5.3240010990       -0.3565290464       -0.3993136640
 H         -4.2494638633       -1.4496867732        0.4690056289
 H         -3.4694319324        0.2796598527       -1.9285984769
 H         -2.3859994178       -0.8351587878       -1.0970120193
 H         -2.6078970258        0.4654587435        0.9914010789
 H         -3.7549441237        1.5562881873        0.2145553754
 H         -2.0157685203        2.3085037801       -1.3655164348
 H         -0.8847795267        1.1270439929       -0.7028713133
 H         -0.9388163648        2.2650939585        1.4877296148
 H         -2.1565369063        3.3880898593        0.9026324261
 H          0.0966715066        4.3923603207        0.9714359183
 H         -0.6233178992        4.4272825689       -0.6367971461
 H          1.7734472520        3.8733587873       -0.7128053290
 H          0.7735818197        2.5958460933       -1.3937368546
 H          0.9351546836        1.3436155347        0.7579180175
 H          2.0183343669        2.5810988277        1.3913339999
 H          3.7568261561        1.9649497038       -0.1410616996
 H          2.6217237898        1.1589490157       -1.2223417814
 H          3.3506726474        0.1700162557        1.5694902414
 H          4.0079914031       -0.4634415100        0.0557755605
 H          1.1611216811       -0.6992811646        2.4418815686
 H         -1.1122775201       -1.8620144999        2.9570295525
 H         -1.1155861651       -3.4421172583        2.1595598601
 H         -2.1056366024       -2.1370028797        1.5147415342
 H          2.1276139566       -2.5635177372       -2.5362748436
 H          3.3034723849       -1.3659641853       -1.9698475301
 H          1.8027692086       -0.8449400164       -2.7430399476
