  29
        -37.51627887
 C          2.6882971017        2.7526886654        0.0054045369
 C          2.5961309994        1.4273586218       -0.0066491501
 C          1.3619905302        0.6792503552       -0.0018415706
 C          0.0621685606        1.1568932752        0.0004595832
 N         -0.7606728210        0.0915870067        0.0090306138
 C         -2.2159206948        0.1126940680       -0.0007979788
 C         -2.6883033589        0.7475341678       -1.3130991541
 C         -2.7189392590       -1.3252820236        0.0983631322
 C         -2.7100082622        0.9257987076        1.1998264241
 N         -0.0880892232       -1.0495740775        0.0088822014
 C          1.2030981355       -0.7369393600        0.0029763479
 C          2.2366638497       -1.7467033914        0.0010966837
 C          1.9938065606       -3.0523178961       -0.0016951570
 H          3.6422083636        3.2512535927        0.0013794059
 H          1.8191281639        3.3881356652        0.0202905193
 H          3.5006083272        0.8333906584       -0.0202303402
 H         -0.3055598529        2.1622005305       -0.0045561030
 H         -2.3091031103        0.1808924853       -2.1604754567
 H         -2.3364212321        1.7728780072       -1.3987949324
 H         -3.7742201129        0.7510099097       -1.3548685103
 H         -2.3456036962       -1.9114947478       -0.7358914151
 H         -3.8053868698       -1.3379617264        0.0876520815
 H         -2.3653192011       -1.7840995782        1.0171271960
 H         -2.3958200055        1.9640553198        1.1282650354
 H         -2.3160318460        0.5083088321        2.1236774407
 H         -3.7956069370        0.8992639085        1.2421503572
 H          3.2537498543       -1.3777757673        0.0010668252
 H          0.9831178492       -3.4213889818       -0.0016791348
 H          2.7880284811       -3.7790704304       -0.0038968535
