  26
        -40.96204632
 C         -2.9805907129       -3.2144740753        0.1740552557
 C         -1.7330393935       -2.8122122277       -0.0343055195
 C         -1.2541903693       -1.4335902629       -0.0505532440
 C         -2.1105528428       -0.3337480313       -0.0497236133
 C         -1.6346389586        0.9761208121       -0.0735985538
 C         -2.5157109813        2.1397480722       -0.0808779285
 C         -3.8233953301        2.1425854770        0.1458171693
 C         -0.2521719887        1.1786431402       -0.1004895697
 C          0.5956539829        0.0932070504       -0.0980753565
 S          2.3668222350        0.3730680720       -0.0879204171
 C          2.7539714223        0.4506832251        1.6883401185
 O          3.0299414955       -0.7768077823       -0.6405888790
 O          2.6447742659        1.6611819317       -0.6631407493
 C          0.1235054498       -1.2004771650       -0.0767733416
 H         -3.2373906144       -4.2596201138        0.1712901067
 H         -3.7921227683       -2.5323306642        0.3613852897
 H         -0.9612927918       -3.5532757619       -0.1992417314
 H         -3.1750807332       -0.5015846497       -0.0575362190
 H         -2.0131562128        3.0776888423       -0.2799741554
 H         -4.3804640382        1.2486864950        0.3686488004
 H         -4.3915422697        3.0563647338        0.1234547462
 H          0.1714404672        2.1703134444       -0.1414382986
 H          2.4799038172       -0.4969498070        2.1329319686
 H          2.1907103314        1.2681500484        2.1188118898
 H          3.8178346445        0.6258485809        1.7878458314
 H          0.8322765663       -2.0138990249       -0.0998865151
