  26
        -48.71392015
 C          0.7591543658       -4.1944437546        0.0204943858
 C          1.3865187638       -3.1198639453       -0.4369728831
 C          0.8826869896       -1.7516025784       -0.3088485654
 C         -0.4628596576       -1.5062184805       -0.4363685202
 C         -1.0120847321       -0.2108960529       -0.3548347369
 C         -2.4559504646       -0.0500833079       -0.4986278271
 C         -3.2131561838        0.8264387516        0.1420459850
 F         -2.8383544975        1.6931817382        1.0665301539
 F         -4.5300673008        0.9131899256       -0.0334348443
 C         -0.1426595893        0.8417051335       -0.1799943352
 F         -0.6091018669        2.1067300597       -0.1891902825
 C          1.2485259151        0.6588917644       -0.0349585747
 C          2.1153731055        1.7533983315        0.1663993920
 C          3.4565047020        1.5527355409        0.3334494852
 C          3.9786614695        0.2524223239        0.3124102497
 C          3.1590033938       -0.8251697424        0.1113940585
 C          1.7729361008       -0.6603925162       -0.0841579892
 H          1.1614592472       -5.1837499637       -0.1137161937
 H         -0.1681125765       -4.1260657157        0.5644160788
 H          2.3316061560       -3.2323206432       -0.9509526504
 H         -1.1360300184       -2.3298845714       -0.6197337711
 H         -2.9631318948       -0.7289507132       -1.1675448016
 H          1.6949838983        2.7472483247        0.1943655246
 H          4.1178140072        2.3915285531        0.4899398706
 H          5.0381948156        0.1041508022        0.4601971964
 H          3.5774839141       -1.8194394848        0.1148786397
