26
 energy: -48.713809424921 gnorm: 0.000077182542 xtb: 6.5.0 (unknown)
C            0.86743743950000       -4.17587905120000       -0.60414929320000
C            1.35134350260000       -3.15260413320000        0.08581714800000
C            0.86439490020000       -1.77655476990000       -0.02498488990000
C           -0.47930627650000       -1.54096767410000       -0.18627663590000
C           -1.02211529790000       -0.24220426820000       -0.25506248310000
C           -2.46613642420000       -0.09192392940000       -0.40973975180000
C           -3.21910107280000        0.84830010190000        0.13901197070000
F           -2.83984666020000        1.80461420150000        0.96830426070000
F           -4.53615683760000        0.92046402350000       -0.04185024420000
C           -0.14907058340000        0.81962786320000       -0.18760572740000
F           -0.61164987870000        2.07911821580000       -0.32016869960000
C            1.24248700080000        0.64753951500000       -0.03335220390000
C            2.11589411770000        1.75376342380000        0.02574864920000
C            3.46251785500000        1.56637225260000        0.16036089100000
C            3.98567703930000        0.26822915780000        0.23130526430000
C            3.15883474470000       -0.82105926120000        0.17553630720000
C            1.76254688870000       -0.67158976210000        0.05387653440000
H            1.24674984070000       -5.17484241360000       -0.47481530080000
H            0.08946267670000       -4.05235525330000       -1.33884382730000
H            2.15404169910000       -3.31776552320000        0.79175217510000
H           -1.16194191260000       -2.37616422250000       -0.22702027760000
H           -2.97775201590000       -0.83429129740000       -1.00353419840000
H            1.69723356470000        2.74666467280000       -0.03833964570000
H            4.12898187980000        2.41432517820000        0.20691467270000
H            5.05270777590000        0.13114724180000        0.32642280040000
H            3.58295667860000       -1.81212346610000        0.21449737160000
