  25
        -41.24013405
 C         -4.0844802839        1.4095503455       -0.0800569043
 C         -3.6915202748        0.1409782152       -0.0655027023
 C         -2.3165135971       -0.3338748479        0.0020708693
 C         -2.0633073505       -1.7086522501        0.0374750556
 C         -0.7778832651       -2.2042435725        0.1036202819
 C          0.3254858747       -1.3475166454        0.1383353107
 C          1.6948156512       -1.8449147820        0.2204470040
 C          2.1087675692       -2.9989114900       -0.2889742642
 C          0.0633775225        0.0216650387        0.1081084017
 S          1.3976659816        1.2242412897        0.0838347812
 N          2.2114399167        0.9152640114       -1.3429626351
 O          0.8270844145        2.5289370053       -0.0511174477
 O          2.3201683508        0.9732855551        1.1488429121
 C         -1.2144053619        0.5232763192        0.0350537155
 H         -5.1278910449        1.6691030230       -0.1299176142
 H         -3.3929060846        2.2330623680       -0.0405468429
 H         -4.4370468496       -0.6439418019       -0.1035817437
 H         -2.8958208762       -2.3976846802        0.0184023598
 H         -0.6168321791       -3.2704049499        0.1510620851
 H          2.3851505612       -1.1898749792        0.7342716977
 H          1.4516657398       -3.6595392218       -0.8311263846
 H          3.1314225038       -3.3202045120       -0.1923145251
 H          1.6731591355        1.1397879916       -2.1619579859
 H          2.6440467824        0.0078127413       -1.3884356040
 H         -1.3243516539        1.5948260813        0.0058027585
  25
        -41.23983607
 C         -4.7551606485        0.0699477840        0.3672888044
 C         -3.5539437699        0.6366201757        0.3573941194
 C         -2.2801095563       -0.0302424397        0.1257862686
 C         -2.1564030143       -1.4035997134       -0.1040370833
 C         -0.9249158224       -1.9849564825       -0.3198071282
 C          0.2489572692       -1.2255807963       -0.3192531228
 C          1.5597996037       -1.8204694643       -0.5582769363
 C          1.8950955053       -3.0618393278       -0.2279253829
 C          0.1161541547        0.1435325003       -0.0955010339
 S          1.5535677323        1.2170856551       -0.0108291131
 N          2.4185373791        0.6521127699        1.3030312037
 O          2.3834205316        1.0342728849       -1.1624594708
 O          1.1147314341        2.5346301595        0.3307954769
 C         -1.1076408494        0.7296002234        0.1285495323
 H         -5.6432238307        0.6506168166        0.5471141437
 H         -4.9083913009       -0.9819157322        0.1972028555
 H         -3.4722991045        1.7017724767        0.5322250185
 H         -3.0376880687       -2.0256481474       -0.1182445371
 H         -0.8620945058       -3.0447273418       -0.5148264090
 H          2.2762112161       -1.1632699587       -1.0321163941
 H          1.2127745530       -3.7307908533        0.2711221131
 H          2.8767143499       -3.4517506065       -0.4347781932
 H          2.7643124451       -0.2876361936        1.2026737514
 H          1.9546436042        0.8129407361        2.1804748901
 H         -1.1308930713        1.7944895150        0.3030214623
  25
        -41.23765617
 C         -3.9898956323        1.5544074802        0.2787716764
 C         -3.6914863236        0.2615452090        0.2225759198
 C         -2.3554642150       -0.3105850517        0.1320313704
 C         -2.1973167099       -1.6989979327        0.1206720382
 C         -0.9466291925       -2.2702300605        0.0403432872
 C          0.2159538741       -1.4956879166       -0.0600328630
 C          1.4860713919       -2.2061495103       -0.1853265608
 C          2.5447594244       -1.8137315797       -0.8844668150
 C          0.0521587359       -0.1104783950       -0.0294070385
 S          1.3946501326        1.0969117414       -0.0268809237
 N          2.5080998826        0.5654400448        1.0943446206
 O          2.0449858685        1.1265512786       -1.3022721111
 O          0.8663685861        2.3211979922        0.4939682751
 C         -1.1964686180        0.4633904344        0.0685946808
 H         -5.0111766589        1.8882148010        0.3436863060
 H         -3.2392043889        2.3252531057        0.2639689386
 H         -4.4920148592       -0.4679947594        0.2445456893
 H         -3.0694862975       -2.3340656299        0.1826970995
 H         -0.8521538296       -3.3467419176        0.0358666104
 H          1.4944278417       -3.1778248499        0.2973447676
 H          2.5651498808       -0.8847539477       -1.4277541841
 H          3.4218896011       -2.4367768104       -0.9513439353
 H          2.9282473743       -0.3241362589        0.8750431323
 H          2.1628107544        0.6251292601        2.0368582851
 H         -1.2383253800        1.5390352153        0.1074337044
  25
        -41.23740108
 C         -4.7810998874        0.2847511930        0.2053419915
 C         -3.5459032457        0.7707390708        0.1599770010
 C         -2.3155516127        0.0002064308        0.0456799804
 C         -2.2826349448       -1.3850747580       -0.1322426174
 C         -1.0829558878       -2.0532406191       -0.2334139049
 C          0.1491237685       -1.3923919320       -0.1397655780
 C          1.3564748943       -2.2114026438       -0.2131914450
 C          2.4932304130       -1.9992070329        0.4397160344
 C          0.1092202847       -0.0070582936        0.0137598811
 S          1.5495390569        1.0806393447        0.0388900955
 N          2.5226157180        0.6073297104       -1.2293359186
 O          1.0944237063        2.3984336799       -0.2845554550
 O          2.2949248668        0.8957025662        1.2475236533
 C         -1.0903243159        0.6665421131        0.0979236031
 H         -5.6331408724        0.9359102771        0.2956916567
 H         -4.9975764049       -0.7688755059        0.1605678961
 H         -3.3965190989        1.8410649755        0.2201978012
 H         -3.2029196799       -1.9434351571       -0.2019918270
 H         -1.0825904295       -3.1250020284       -0.3724597703
 H          1.2435939987       -3.1078515739       -0.8138459345
 H          2.6344126654       -1.1543844805        1.0916848121
 H          3.3149337620       -2.6917129037        0.3544648335
 H          2.1102219213        0.8037138583       -2.1251433164
 H          2.8840580292       -0.3301168901       -1.1491840672
 H         -1.0511246184        1.7403513612        0.1956470135
