  27
        -43.59953343
 C         -4.3260638652       -0.9468226657       -0.0764234043
 C         -3.5499486398        0.0690272414        0.2791655186
 C         -2.1044188801        0.1239284078        0.0870228212
 C         -1.3155688098       -1.0131867563        0.1043630018
 C          0.0729930030       -0.9428916918       -0.0413196429
 C          0.9098449250       -2.1360553994       -0.0625816735
 C          0.6144391067       -3.2847694260        0.5321701594
 C          0.6141107298        0.3394399138       -0.1926025204
 C          2.0868510742        0.5748334140       -0.3130969438
 O          2.6209880363        1.1977831521       -1.1913808954
 O          2.7514116358        0.0037344483        0.7022680304
 C          4.1607347614        0.1804333891        0.6991189798
 N         -0.1218018837        1.4393496922       -0.2425374784
 C         -1.4398665718        1.3591096344       -0.1186577226
 N         -2.1064017590        2.5488443163       -0.1637304787
 H         -5.3871874401       -0.9362310639        0.1039731099
 H         -3.9358122273       -1.8187632211       -0.5736841631
 H         -3.9902752119        0.9364663377        0.7552831817
 H         -1.7839000930       -1.9762319453        0.2397724042
 H          1.8403792354       -2.0420242400       -0.6063048753
 H         -0.2823991140       -3.4196259217        1.1131230657
 H          1.2741672179       -4.1331585015        0.4746916399
 H          4.5347844682       -0.3451831459        1.5737917579
 H          4.4089613710        1.2423489341        0.7522493945
 H          4.5936559992       -0.2342520889       -0.2139266105
 H         -1.5469448346        3.3291203211       -0.4676430140
 H         -3.0745984622        2.5525063015       -0.4325897634
