  23
        -42.29238727
 C         -3.3049950269        3.3787091805        0.0499650999
 C         -2.0740231108        3.0100489319       -0.2825400190
 C         -1.5151017347        1.6650568937       -0.2015391491
 C         -2.2864883909        0.5414935093        0.1020584265
 C         -1.7335819003       -0.7255003457        0.1591718915
 C         -2.5519105307       -1.9429986575        0.4550867203
 C         -0.3683007131       -0.8544613260       -0.0767594076
 F          0.1616426127       -2.0953233868       -0.0723255855
 C          0.4465027945        0.2371131334       -0.3639168768
 C          1.8826026263        0.1116039193       -0.6056183066
 C          2.7113690200       -0.6919005981        0.0409886288
 F          2.4288219808       -1.4963168407        1.0509728906
 F          4.0152624155       -0.7551725575       -0.2194305219
 C         -0.1555583889        1.4895888848       -0.4421233099
 H         -3.6243002143        4.4024363961       -0.0414821157
 H         -4.0397222385        2.6898256090        0.4294421891
 H         -1.3820815836        3.7608176147       -0.6436623012
 H         -3.3444337987        0.6503200935        0.2809465203
 H         -3.5884021420       -1.6773481221        0.6418360278
 H         -2.1532733643       -2.4601534763        1.3267241169
 H         -2.5085880746       -2.6371213243       -0.3834061641
 H          2.3163294656        0.7527449119       -1.3578984362
 H          0.4596288074        2.3456828014       -0.6775132502
