14
 energy: -25.289388042023 gnorm: 0.000044002736 xtb: 6.4.1 (23d549d)
C        -3.70424049970000   -0.24622740360000   -0.12838883000000
C        -2.75924087360000    0.66713955220000    0.08484036460000
C        -1.32963958570000    0.44747922840000    0.06208482420000
C        -0.72996329700000   -0.75536093030000    0.05551602920000
C         0.68926219300000   -1.00710124630000    0.03116499270000
C         1.67790013000000   -0.12004646780000   -0.00861334980000
F         1.58124116140000    1.20402153500000   -0.03384435210000
F         2.96533334240000   -0.46113180480000   -0.02840470940000
H        -4.74873463940000    0.01036337390000   -0.09349091250000
H        -3.47652963350000   -1.27343610160000   -0.35582290120000
H        -3.05801284050000    1.68909284020000    0.28102802620000
H        -0.72820722500000    1.34476321950000    0.06596224370000
H        -1.33611071020000   -1.64922935660000    0.07919408660000
H         1.00622912200000   -2.03955551490000    0.04527605440000
