  20
        -34.65895897
 C         -3.8814430620       -0.5975133623        0.1558030462
 C         -2.8203800373        0.1021291103       -0.2249740305
 C         -1.4430139666       -0.3498437691       -0.1206663956
 C         -1.0549842081       -1.6638350337       -0.0571367224
 S          0.6367725524       -1.8798535513       -0.0140442518
 C          0.8778318622       -0.1671126583       -0.0711001256
 C          2.2688123743        0.2977389993       -0.0067383644
 O          3.2025034622       -0.4373634004       -0.1892598227
 O          2.4575734951        1.5986567089        0.2896880757
 C         -0.3142920846        0.5264433138       -0.1353654139
 C         -0.4180515764        1.9822095359       -0.2371413377
 C         -1.2266453879        2.7217599209        0.5106188507
 H         -4.8788180744       -0.2107138849        0.0401981034
 H         -3.7952836658       -1.5720526971        0.6050324548
 H         -2.9478188757        1.0910620776       -0.6456966402
 H         -1.6947951397       -2.5237702080       -0.0574573318
 H          1.6267637181        2.0647401781        0.4660159239
 H          0.1975565246        2.4491322444       -0.9992260144
 H         -1.8436465202        2.2865909450        1.2791932324
 H         -1.2870718066        3.7897749906        0.3893552393
