56
 energy: -64.415255679652 gnorm: 0.000080434779 xtb: 6.4.1 (23d549d)
C         2.19542749960000   -2.96760240560000    1.89144120380000
C         1.30847022970000   -2.58298232240000    0.98903605840000
C         0.59801358400000   -1.29319479290000    1.00123176440000
C        -0.78877163130000   -1.31996089710000    1.10830222000000
C        -1.55770002840000   -0.16916219930000    1.15364381570000
C        -3.05340874970000   -0.28123760510000    1.23296973400000
C        -3.70393440070000    0.03534083760000   -0.11847091630000
C        -5.22470111210000   -0.07307190660000   -0.04907334990000
C        -5.92319232750000    0.36488024730000   -1.33727060210000
C        -5.59196704850000   -0.47813991380000   -2.56987400990000
C        -6.00862841990000   -1.93768126020000   -2.43093996630000
C        -0.91210751040000    1.07113319780000    1.05572999630000
C        -1.65998252850000    2.32709177120000    1.09201252710000
C        -1.32921863900000    3.42565060520000    0.42676967440000
C         0.47437224710000    1.09259512580000    0.92887039410000
C         1.24497811800000   -0.05823319880000    0.90508846100000
C         2.72626082000000    0.05426195660000    0.67723479950000
C         3.03771415910000   -0.11206106870000   -0.81501879080000
C         4.53492393440000   -0.09894591760000   -1.12033367810000
C         5.19163561500000    1.25339456640000   -0.84727384870000
C         6.62065142790000    1.34479852370000   -1.38363165460000
C         7.58942062740000    0.41185385990000   -0.66636292790000
H         2.66423782260000   -3.93666887640000    1.85168321840000
H         2.47711527450000   -2.33471914340000    2.71728335790000
H         1.01424027540000   -3.26282451040000    0.19717683890000
H        -1.28007484800000   -2.28180835120000    1.17437662520000
H        -3.44763157630000    0.40041126200000    1.99068174000000
H        -3.32554931410000   -1.29656429680000    1.53018442250000
H        -3.31125185220000   -0.65974199140000   -0.86253606420000
H        -3.42317310910000    1.04553834200000   -0.42516312770000
H        -5.58461088650000    0.56318074350000    0.76429398760000
H        -5.50694113600000   -1.09881828540000    0.19449153160000
H        -5.65320584840000    1.40355037420000   -1.54500781720000
H        -7.00350787120000    0.33204501010000   -1.17294491880000
H        -4.52238162200000   -0.42232391520000   -2.77842974960000
H        -6.11281448230000   -0.04303916010000   -3.42664412300000
H        -5.42629687600000   -2.43947922680000   -1.66267342050000
H        -5.85316150890000   -2.46512537130000   -3.36958155220000
H        -7.06203516940000   -2.00961962470000   -2.16796311670000
H        -2.54835061600000    2.33384104850000    1.71045972440000
H        -0.47662174760000    3.46266647350000   -0.23069682130000
H        -1.91236470580000    4.32817188970000    0.49875883750000
H         0.97171280900000    2.05006159360000    0.86659243420000
H         3.26415884860000   -0.71213996660000    1.23367751890000
H         3.06877562560000    1.03241307310000    1.01671680730000
H         2.54064270800000    0.68264727980000   -1.37679106020000
H         2.61826186710000   -1.06449960800000   -1.14890367680000
H         4.67552884790000   -0.34925056950000   -2.17517679220000
H         5.02198682620000   -0.87433736560000   -0.52649134010000
H         5.20622153140000    1.44764962180000    0.22668871050000
H         4.59160298730000    2.03543122990000   -1.31993991500000
H         6.97097166030000    2.37351613620000   -1.26754115250000
H         6.62080527640000    1.11557032000000   -2.45194312290000
H         7.57325474890000    0.59812310840000    0.40548814270000
H         8.60359985170000    0.57096447680000   -1.02617485740000
H         7.32851787520000   -0.62882255590000   -0.83946246890000
