  42
        -59.77134184
 C          0.5023273683        3.0583207713       -4.3237620284
 C         -0.1213615309        3.7300713930       -3.3635252348
 C         -0.7091688165        3.1842691579       -2.1449098429
 C         -1.3944884788        4.0427463179       -1.2926648564
 C         -1.9853604100        3.5851421242       -0.1147654434
 C         -2.6951964002        4.5388498642        0.7312497903
 C         -3.3641591338        4.2681666611        1.8450124548
 C         -1.8701555745        2.2378013141        0.2034855519
 C         -1.1836014389        1.3620763018       -0.6355425714
 O         -1.1387657430        0.0687124793       -0.2132196734
 C         -0.4494228306       -0.8847799960       -0.9922500511
 C         -0.5433235325       -2.2326574231       -0.2809133506
 C          0.0943848695       -2.2251133630        1.1092738947
 C          1.6026787808       -1.9702250509        1.1337385016
 C          2.4385079458       -2.9561835925        0.3128102891
 C          2.2224634639       -4.4183538540        0.7254945447
 C          2.4133679050       -4.6272039315        2.2164290279
 O          1.5538289979       -5.0093102345        2.9548528737
 O          3.6484538509       -4.3574233739        2.6777008112
 C         -0.6060558409        1.8335256849       -1.8056284186
 H          0.8998558953        3.5603503665       -5.1891546962
 H          0.6423019950        1.9911466065       -4.2980030877
 H         -0.2291298115        4.8031059639       -3.4669554248
 H         -1.4757635433        5.0892069771       -1.5515235348
 H         -2.6556503167        5.5631933691        0.3803720846
 H         -3.4492097047        3.2732252690        2.2462885378
 H         -3.8603389790        5.0444328702        2.4020878471
 H         -2.3019991645        1.8330427517        1.1036476823
 H          0.6002824309       -0.5862601385       -1.1176070805
 H         -0.9084595034       -0.9629058057       -1.9888498888
 H         -0.0862006558       -2.9909847063       -0.9178155921
 H         -1.6001709171       -2.4803003972       -0.1695600283
 H         -0.1160678291       -3.1767798124        1.5989467008
 H         -0.3879282184       -1.4418465509        1.6956295375
 H          1.9273993477       -2.0134359413        2.1762668558
 H          1.8103741328       -0.9602260822        0.7745648873
 H          3.4936915055       -2.6857699669        0.4245501333
 H          2.1980059452       -2.8578677032       -0.7472229398
 H          2.9274691541       -5.0605072036        0.1892645838
 H          1.2118600604       -4.7364227028        0.4725717818
 H          4.2409596515       -4.0495018952        1.9795793395
 H         -0.0724090970        1.1659100953       -2.4610508369
