42
 energy: -59.771341842096 gnorm: 0.000058266969 xtb: 6.4.1 (23d549d)
C         0.50232736830000    3.05832077130000   -4.32376202840000
C        -0.12136153090000    3.73007139300000   -3.36352523480000
C        -0.70916881650000    3.18426915790000   -2.14490984290000
C        -1.39448847880000    4.04274631790000   -1.29266485640000
C        -1.98536041000000    3.58514212420000   -0.11476544340000
C        -2.69519640020000    4.53884986420000    0.73124979030000
C        -3.36415913380000    4.26816666110000    1.84501245480000
C        -1.87015557450000    2.23780131410000    0.20348555190000
C        -1.18360143890000    1.36207630180000   -0.63554257140000
O        -1.13876574300000    0.06871247930000   -0.21321967340000
C        -0.44942283060000   -0.88477999600000   -0.99225005110000
C        -0.54332353250000   -2.23265742310000   -0.28091335060000
C         0.09438486950000   -2.22511336300000    1.10927389470000
C         1.60267878080000   -1.97022505090000    1.13373850160000
C         2.43850794580000   -2.95618359250000    0.31281028910000
C         2.22246346390000   -4.41835385400000    0.72549454470000
C         2.41336790500000   -4.62720393150000    2.21642902790000
O         1.55382899790000   -5.00931023450000    2.95485287370000
O         3.64845385090000   -4.35742337390000    2.67770081120000
C        -0.60605584090000    1.83352568490000   -1.80562841860000
H         0.89985589530000    3.56035036650000   -5.18915469620000
H         0.64230199500000    1.99114660650000   -4.29800308770000
H        -0.22912981150000    4.80310596390000   -3.46695542480000
H        -1.47576354330000    5.08920697710000   -1.55152353480000
H        -2.65565031670000    5.56319336910000    0.38037208460000
H        -3.44920970470000    3.27322526900000    2.24628853780000
H        -3.86033897900000    5.04443287020000    2.40208784710000
H        -2.30199916450000    1.83304275170000    1.10364768230000
H         0.60028243090000   -0.58626013850000   -1.11760708050000
H        -0.90845950340000   -0.96290580570000   -1.98884988880000
H        -0.08620065580000   -2.99098470630000   -0.91781559210000
H        -1.60017091710000   -2.48030039720000   -0.16956002830000
H        -0.11606782910000   -3.17677981240000    1.59894670080000
H        -0.38792821840000   -1.44184655090000    1.69562953750000
H         1.92739934770000   -2.01343594130000    2.17626685580000
H         1.81037413280000   -0.96022608220000    0.77456488730000
H         3.49369150550000   -2.68576996690000    0.42455013330000
H         2.19800594520000   -2.85786770320000   -0.74722293980000
H         2.92746915410000   -5.06050720360000    0.18926458380000
H         1.21186006040000   -4.73642270280000    0.47257178180000
H         4.24095965150000   -4.04950189520000    1.97957933950000
H        -0.07240909700000    1.16591009530000   -2.46105083690000
