  22
        -42.15628469
 C         -4.1895293628        0.4753891957       -0.0691056654
 C         -2.6936647557        0.5231932850       -0.1057449814
 C         -2.0369082212        1.6972662313       -0.4505778529
 C         -0.6581332207        1.7656849710       -0.4917947456
 C          0.0786450925        0.6349208157       -0.1812702416
 O          1.4803166392        0.7977688844       -0.2499653429
 C          2.2825369900       -0.2034269171        0.0209068050
 F          2.1727663125       -0.6883441518        1.2734958624
 F          2.1379393954       -1.2733432076       -0.7854878846
 F          3.5424587978        0.2022131883       -0.1156038345
 C         -0.5492160820       -0.5460269842        0.1653448261
 C         -1.9377355933       -0.6096223565        0.2053606325
 C         -2.6071833328       -1.8937962363        0.5821824971
 H         -4.6121719515        1.4399402918       -0.3362780455
 H         -4.5401221627        0.2063092992        0.9264709723
 H         -4.5660399103       -0.2734352296       -0.7648396390
 H         -2.6142629617        2.5771458825       -0.6923582669
 H         -0.1435043674        2.6734191329       -0.7586366325
 H          0.0154344931       -1.4322032188        0.4092740800
 H         -1.8735037188       -2.6673574435        0.7899706489
 H         -3.2552609191       -2.2367058561       -0.2233862147
 H         -3.2265757207       -1.7554061953        1.4674922245
