  29
        -51.51708859
 C          0.4678376652        4.5695653357        0.0514833536
 C         -0.5484385002        3.7202045627        0.1362660818
 C         -0.4735317204        2.2646114003        0.0590129155
 C         -1.6556697295        1.5281302275        0.1060096366
 C         -1.6647060005        0.1348022027        0.0356093495
 C         -2.9521431538       -0.5416017364        0.0921868305
 C         -3.2009678425       -1.8421609879        0.0460303025
 F         -2.3368159054       -2.8388636658       -0.0624039977
 F         -4.4332178744       -2.3430541049        0.1074851612
 C         -0.4485852304       -0.5339445512       -0.0837461220
 C          0.7396968271        0.1876222127       -0.1297224260
 C          2.0097311772       -0.5764554957       -0.2545585877
 O          2.0689582062       -1.7794248217       -0.3177553311
 O          3.0828389734        0.2242380307       -0.3003972976
 C          4.3560667049       -0.4127922786       -0.4038949445
 C          4.8612465136       -0.8736162894        0.9558722884
 C          0.7318438427        1.5743528782       -0.0586642126
 H          0.3131112970        5.6326430099        0.1184589500
 H          1.4860115077        4.2502718347       -0.0888670088
 H         -1.5492684184        4.1114913428        0.2720172097
 H         -2.5958460693        2.0539742804        0.1987688410
 H         -3.8249405352        0.0888584606        0.1837880676
 H         -0.3910727648       -1.6085699175       -0.1424546071
 H          5.0160835065        0.3430093783       -0.8351299315
 H          4.2707714137       -1.2668865065       -1.0838339701
 H          4.9007361908       -0.0353742271        1.6476254605
 H          5.8565641101       -1.2954764508        0.8503735621
 H          4.1971498399       -1.6342247788        1.3588827267
 H          1.6689816373        2.1040145550       -0.0935623512
