82
 energy: -97.859921103108 gnorm: 0.000050567906 xtb: 6.4.1 (23d549d)
C        -0.62809741420000    4.86107956350000   -1.82684735870000
C        -1.57063937260000    3.94218223820000   -1.64779231820000
C        -1.69471530320000    2.98947332910000   -0.55467200920000
C        -2.91426354530000    2.32353580880000   -0.42199008330000
C        -3.17256591460000    1.39823675210000    0.57632178590000
O        -4.34054773700000    0.69997478400000    0.66301289860000
C        -5.18463786350000    0.62145226250000   -0.46774398270000
C        -6.03169748840000   -0.64939476650000   -0.37850327790000
C        -5.26417557060000   -1.90879635450000   -0.78764152130000
C        -4.27258116010000   -2.37396506480000    0.27819923790000
C        -3.30633190450000   -3.44898495300000   -0.22037354550000
C        -2.30403042490000   -2.97334725200000   -1.27642570870000
C        -1.44306052060000   -1.77713779380000   -0.86429285330000
C        -0.59902289980000   -1.99234255990000    0.39197226430000
C         0.44843611030000   -3.10168516720000    0.28763734700000
C         1.50510930790000   -2.83515283450000   -0.77859648340000
C        -2.17552251000000    1.14391497390000    1.53819902890000
C        -2.32750305850000    0.24095936420000    2.66986408530000
C        -3.45919001490000   -0.22361321000000    3.18749798630000
C        -0.94695084860000    1.78455272170000    1.38587949300000
C        -0.67222396860000    2.67974991210000    0.36318463040000
O         0.54067387740000    3.28672124640000    0.19970178970000
C         1.68126159050000    2.75148336580000    0.83983491430000
C         2.06051309350000    1.37189075050000    0.29713197410000
C         3.13233694030000    0.67610094330000    1.13329371140000
C         4.50562767500000    1.34897741200000    1.10345520240000
C         5.12398624520000    1.48776493640000   -0.29024484040000
C         5.21333874740000    0.18758958630000   -1.09123727250000
C         6.05416133220000   -0.89313894500000   -0.41604082310000
C         6.17420033570000   -2.13930529460000   -1.29017042270000
C         6.99488502870000   -3.23782062170000   -0.61904385970000
C         7.10956140100000   -4.47724014730000   -1.49789884990000
H        -0.65507558420000    5.51813969490000   -2.68075573900000
H         0.18535154880000    4.99342439730000   -1.13923559590000
H        -2.37613965710000    3.88055414010000   -2.37169745800000
H        -3.68947119510000    2.56519001650000   -1.13354449700000
H        -4.58937546240000    0.59656593330000   -1.38942971410000
H        -5.83849265350000    1.50566100440000   -0.49748183180000
H        -6.89080662650000   -0.52169467590000   -1.04025232740000
H        -6.40037359530000   -0.75324591990000    0.64272314720000
H        -4.73750316360000   -1.70409648850000   -1.72142357170000
H        -5.97863738060000   -2.71205886980000   -0.98512158610000
H        -4.83537090880000   -2.77715869850000    1.12411225710000
H        -3.70695605830000   -1.52284953150000    0.64971524670000
H        -3.88106105670000   -4.27741883810000   -0.64437734980000
H        -2.75699315600000   -3.84222742280000    0.63719927240000
H        -2.84056818650000   -2.70534780860000   -2.18966110840000
H        -1.65417301320000   -3.81395117500000   -1.52994917510000
H        -2.08346528200000   -0.90982040970000   -0.69370751930000
H        -0.78655937780000   -1.52333537590000   -1.69954792850000
H        -1.25957010440000   -2.20696728230000    1.23374453150000
H        -0.08882276290000   -1.05255684410000    0.61819926810000
H        -0.04059831520000   -4.05552775870000    0.08303237370000
H         0.94344384780000   -3.19246066090000    1.25820859470000
H         1.07290003900000   -2.86687917820000   -1.77534007180000
H         2.29130112680000   -3.58579205530000   -0.72754698600000
H         1.95462468380000   -1.85513771800000   -0.63141844510000
H        -1.38936841290000   -0.03854886240000    3.13664242740000
H        -4.42241732840000    0.03708811310000    2.79129052070000
H        -3.44701774080000   -0.88200997150000    4.04051714210000
H        -0.18841729510000    1.56468282900000    2.12145932890000
H         1.54186198860000    2.71389989250000    1.92849906030000
H         2.46928180780000    3.47800523010000    0.62590994280000
H         2.38715727050000    1.47682321050000   -0.73780590530000
H         1.16212884800000    0.74966992410000    0.28907252420000
H         3.23146013820000   -0.35316817370000    0.78502754490000
H         2.79460105050000    0.63112318370000    2.17262593100000
H         5.18026197220000    0.76964231760000    1.73711831100000
H         4.42877470740000    2.34521630630000    1.54451596750000
H         6.13031977130000    1.89763713020000   -0.17243449350000
H         4.54764731310000    2.21210116020000   -0.86954684410000
H         5.65610242570000    0.41821325320000   -2.06383642120000
H         4.21145070000000   -0.20202124140000   -1.27961166410000
H         5.60233752180000   -1.17436293370000    0.53674195310000
H         7.05146213490000   -0.49845451070000   -0.20725803220000
H         6.64092493450000   -1.87160408780000   -2.24122946770000
H         5.17410656030000   -2.52122311440000   -1.51061406380000
H         6.52674852350000   -3.50864240750000    0.33035104570000
H         7.99438754920000   -2.85658561830000   -0.39717499460000
H         6.12387828760000   -4.88446790080000   -1.71308189350000
H         7.69815658170000   -5.24622301470000   -1.00286287450000
H         7.59054378020000   -4.23164693510000   -2.44231386230000
