  20
        -30.39831136
 C          3.8780179695       -0.1729501216       -0.0964325305
 C          2.7662398153       -0.8865444120        0.0283540699
 C          1.4312583066       -0.3045524381        0.0276862559
 C          0.2904233103       -1.1129990790        0.1573697846
 C         -0.9614391258       -0.5278263689        0.1361125468
 C         -2.1620143190       -1.3524100381        0.2158964943
 C         -3.3180921810       -1.1050333725       -0.3877041633
 C         -0.9656130152        0.8913299499        0.0483562160
 N         -2.1117450084        1.6304634598        0.0538450824
 N          0.1626680155        1.5877497530       -0.0749498182
 N          1.3191069986        1.0127878437       -0.1060779168
 H          4.8523429257       -0.6305883345       -0.0930844444
 H          3.8267460372        0.8962203329       -0.2062929321
 H          2.8021037519       -1.9632944833        0.1389534962
 H          0.3898814862       -2.1864272344        0.2449375341
 H         -2.0428455295       -2.2630237114        0.7918128539
 H         -3.4630596713       -0.2513684917       -1.0278299326
 H         -4.1500316432       -1.7831574029       -0.2978579319
 H         -2.9223296599        1.2350446821        0.5018059803
 H         -1.9638216846        2.6205195466        0.1701162943
