  31
        -48.08859226
 C         -3.6454174672        3.1241851871       -0.9498292920
 C         -3.6717666526        2.0366415596       -0.1902678160
 C         -2.5494376851        1.1373739569       -0.0588574123
 N         -2.6102098386        0.0090684500        0.7053038540
 C         -1.4334373018       -0.5448610292        0.5815980972
 C         -1.0816392054       -1.8309373233        1.1445782423
 C         -0.3794936697       -2.7616293833        0.5147069375
 N         -0.6513377090        0.2406176152       -0.2400621404
 C          0.7204532341        0.1814915150       -0.5781182438
 O          1.1501440204        0.6773397177       -1.5761935668
 O          1.3785150789       -0.4562026369        0.3728974963
 C          2.8173769440       -0.6637789462        0.2733506620
 C          3.5338737587        0.6845761651        0.2693111174
 C          3.1541964847       -1.4577676521        1.5342108527
 C          3.1505744737       -1.4708054858       -0.9793793789
 N         -1.3812032218        1.2983017026       -0.6404362345
 H         -4.4962817945        3.7780946501       -1.0326703163
 H         -2.7622550065        3.3811907748       -1.5089671508
 H         -4.5422111050        1.7482965546        0.3811401103
 H         -1.5242071971       -2.0203344937        2.1121770387
 H          0.0168970863       -2.6101015719       -0.4756339432
 H         -0.1900065783       -3.7196467313        0.9669901889
 H          3.2422708138        1.2654309294        1.1416408847
 H          3.2830029001        1.2461560294       -0.6264902014
 H          4.6080999239        0.5259611819        0.2957994641
 H          2.8832606368       -0.8867270433        2.4179060140
 H          4.2176547007       -1.6742140456        1.5627858649
 H          2.5988726977       -2.3918342483        1.5450808982
 H          2.8837902946       -0.9152515280       -1.8743226842
 H          2.6121597078       -2.4161052401       -0.9738156476
 H          4.2167014425       -1.6775220416       -1.0016743825
