  51
        -58.13808048
 C          5.3920815563       -2.9748763261       -0.8326801165
 C          4.9314437743       -1.6499429427       -1.4276353567
 C          3.5257715422       -1.2760918501       -0.9633305829
 C          3.0687128421        0.0577754402       -1.5504086942
 C          1.6239642498        0.4124820720       -1.1984499026
 C          1.4356076772        0.7264879903        0.2901753034
 C          0.0493286052        1.1921849140        0.6321219466
 C         -0.4145364801        2.4276677520        0.2916927332
 C          0.2571900127        3.5076980077       -0.4833061681
 S         -2.0156980946        2.6975943934        0.9015770661
 C         -2.0473583491        1.1282214788        1.6436522488
 C         -3.2371670435        0.7568114346        2.4636017804
 C         -0.8970320533        0.4388265348        1.4032402938
 C         -0.6294192685       -0.9412495050        1.9257894675
 C         -0.5798378180       -2.0324564595        0.8458664368
 C         -1.9420342024       -2.5377626662        0.3667040072
 C         -2.7887333643       -1.5550100053       -0.4462626950
 C         -2.1090391266       -0.9660096142       -1.6819583219
 C         -1.6253845931       -2.0171977431       -2.6736008693
 H          6.3932073656       -3.2232004406       -1.1774635483
 H          4.7194003359       -3.7784845279       -1.1248509803
 H          5.4073055551       -2.9204983067        0.2538601387
 H          4.9456864111       -1.7177865898       -2.5179543122
 H          5.6282358721       -0.8600987927       -1.1373661793
 H          3.5179601943       -1.2247758259        0.1269214649
 H          2.8276091226       -2.0609821864       -1.2649906823
 H          3.1586614692        0.0082829309       -2.6387681527
 H          3.7329006619        0.8529604869       -1.2024964604
 H          0.9771126783       -0.4174053665       -1.4890107483
 H          1.3214292314        1.2815637195       -1.7848435037
 H          2.1463216102        1.5118812101        0.5668843698
 H          1.6737478816       -0.1564212684        0.8810289009
 H          0.0344664519        3.4203845937       -1.5481762939
 H          1.3366800644        3.4564786413       -0.3546132611
 H         -0.0915929996        4.4828249294       -0.1491191276
 H         -4.1312032801        1.2311843209        2.0637838002
 H         -3.1085342232        1.0985997613        3.4924535493
 H         -3.3910143213       -0.3195022163        2.4799859987
 H         -1.3849001349       -1.2059353060        2.6665240695
 H          0.3343397807       -0.9270096481        2.4438883976
 H         -0.0470241244       -2.8902950792        1.2670165075
 H         -0.0017463765       -1.6784945007       -0.0050384862
 H         -2.5267185311       -2.8485051204        1.2375823765
 H         -1.7720127203       -3.4330100247       -0.2365458584
 H         -3.0987611250       -0.7276362654        0.1898374098
 H         -3.6931284309       -2.0830250214       -0.7621706652
 H         -1.2749901972       -0.3357215407       -1.3716121859
 H         -2.8307501000       -0.3147929079       -2.1817622503
 H         -0.8321488601       -2.6260852400       -2.2467188396
 H         -1.2388664693       -1.5390947246       -3.5714410503
 H         -2.4439098763       -2.6739645708       -2.9613341629
