17
 energy: -32.836148382733 gnorm: 0.000058385894 xtb: 6.4.1 (23d549d)
C        -3.34961787520000   -2.05340322000000   -0.00289150270000
C        -2.06559099220000   -1.70786934140000    0.00303454960000
C        -1.56144159660000   -0.35077435930000    0.00128610420000
C        -2.38147589910000    0.80925842040000    0.00087935780000
C        -1.67767080500000    1.96594582080000   -0.00015127730000
S         0.01830132080000    1.70463998750000   -0.00078020020000
C        -0.21373947260000   -0.01843321420000    0.00051322650000
C         0.90263821090000   -0.91714398880000   -0.00020550860000
C         2.18697176930000   -0.57518520550000   -0.00008417870000
F         2.68469056670000    0.65551091110000    0.00084623920000
F         3.18185410990000   -1.45921702070000   -0.00097035650000
H        -3.64696454030000   -3.08762159570000   -0.00088820870000
H        -4.14760532190000   -1.33184207200000   -0.01010384170000
H        -1.31931922520000   -2.49021910000000    0.00973680630000
H        -3.45504210410000    0.77802004610000    0.00172596080000
H        -2.05322980840000    2.96999010090000   -0.00055271240000
H         0.69932777400000   -1.97677676260000   -0.00113259770000
