  21
        -34.51946091
 C         -2.9056628433        2.6361624937       -0.2579719131
 C         -2.6675540754        1.4219113209        0.2182339252
 C         -1.3937972878        0.7133091344        0.0803804197
 C         -0.2126393333        1.4121659805        0.1516855007
 C          1.0011487438        0.7161565563        0.0726879353
 N          2.2373012156        1.2150715312        0.1234331651
 S          3.2834350061       -0.0002172603       -0.0006845698
 N          2.2368924426       -1.2152302019       -0.1237473509
 C          1.0008886258       -0.7160105448       -0.0717563577
 C         -0.2130414163       -1.4118000695       -0.1499761867
 C         -1.3941296271       -0.7128167833       -0.0776695949
 C         -2.6683444266       -1.4203372682       -0.2155287569
 C         -2.9055467733       -2.6379188519        0.2527130389
 H         -3.8560048858        3.1220908724       -0.1178873571
 H         -2.1675040493        3.1827322362       -0.8209072492
 H         -3.4447196906        0.8906976582        0.7524459783
 H         -0.2020855972        2.4806843794        0.2948113527
 H         -0.2025329679       -2.4802371388       -0.2935896808
 H         -3.4472879302       -0.8851271904       -0.7430818248
 H         -2.1659272171       -3.1893476529        0.8089135028
 H         -3.8566583507       -3.1221726360        0.1120932852
  21
        -34.51911184
 C         -3.5830584809        1.5600220388       -0.4226412640
 C         -2.4551024811        1.7638710167        0.2449187227
 C         -1.2738730896        0.9023053927        0.2087683522
 C         -0.0426400720        1.5175120519        0.2266636946
 C          1.1172315499        0.7431263493        0.1039136963
 N          2.3852166256        1.1582751833        0.0815655096
 S          3.3384974608       -0.1260343947       -0.0837156368
 N          2.2085841781       -1.2690071335       -0.1323209804
 C          1.0128798660       -0.6868687003       -0.0218242498
 C         -0.2452769705       -1.3010181793        0.0083654473
 C         -1.3762813740       -0.5262771424        0.1250873087
 C         -2.6785602120       -1.1805551906        0.2498657654
 C         -3.0261569832       -2.2947580315       -0.3798037705
 H         -4.3972530424        2.2632587143       -0.3747013268
 H         -3.7277169689        0.7019300926       -1.0571423378
 H         -2.3352392574        2.6718791380        0.8234857479
 H          0.0429429963        2.5902569932        0.3065426748
 H         -0.3086488853       -2.3766895855       -0.0270432548
 H         -3.3785954520       -0.6983658446        0.9201584679
 H         -2.3723152905       -2.7805410291       -1.0848522628
 H         -3.9895895364       -2.7508675981       -0.2294370081
  21
        -34.51819435
 C         -2.8900132435        2.5939509148       -0.3700519202
 C         -2.6572354743        1.4569800455        0.2709801986
 C         -1.3971940661        0.7159001283        0.1990544554
 C         -0.2150316123        1.4161946184        0.1282467692
 C          0.9964059863        0.7190476013        0.0437284628
 N          2.2306663164        1.2217702651       -0.0248408548
 S          3.2744217997        0.0008750414       -0.1007296297
 N          2.2306355012       -1.2212210721       -0.0480067627
 C          0.9963926660       -0.7198604660        0.0300829049
 C         -0.2150765914       -1.4184376914        0.1014166960
 C         -1.3971885464       -0.7195554234        0.1855276301
 C         -2.6571702380       -1.4620058650        0.2436604634
 C         -2.8903322263       -2.5858199699       -0.4200035295
 H         -3.8296067794        3.1112731953       -0.2785187077
 H         -2.1608998596        3.0398246796       -1.0256213600
 H         -3.4363598897        1.0306635093        0.8878952632
 H         -0.2034407078        2.4938329154        0.1579069575
 H         -0.2035768654       -2.4964482662        0.1106948170
 H         -3.4357088960       -1.0483794164        0.8699014637
 H         -2.1616806502       -3.0181513945       -1.0850973225
 H         -3.8297324401       -3.1051077848       -0.3381215016
  21
        -34.51632376
 C         -3.5149632597        1.4576972980       -0.5778726466
 C         -2.5303947237        1.4742777725        0.3083324496
 C         -1.2980434267        0.6865113627        0.2070074585
 C         -0.1143113818        1.3398711332        0.4591279233
 C          1.1010340718        0.6764292551        0.2450193773
 N          2.3368422662        1.1475375794        0.4182889613
 S          3.3830023320       -0.0008233155        0.0011162718
 N          2.3363967126       -1.1484670841       -0.4173159291
 C          1.1008151848       -0.6762815869       -0.2456383220
 C         -0.1148564104       -1.3388827563       -0.4607323360
 C         -1.2982246046       -0.6847815991       -0.2092306125
 C         -2.5310207451       -1.4721874686       -0.3102807395
 C         -3.5118758674       -1.4594055454        0.5800320656
 H         -4.3706660055        2.1037250077       -0.4819189950
 H         -3.5014883358        0.8029525902       -1.4327389716
 H         -2.5590106064        2.1768289783        1.1322251585
 H         -0.1048872039        2.3684870492        0.7852311687
 H         -0.1059617619       -2.3675551470       -0.7866886947
 H         -2.5627949364       -2.1708613950       -1.1373259506
 H         -3.4944562382       -0.8083058904        1.4375962270
 H         -4.3680897721       -2.1048696846        0.4850631906
