16
 energy: -24.663946634586 gnorm: 0.000082344155 xtb: 6.4.1 (23d549d)
C        -3.65258089060000   -0.22005051800000    0.00101664350000
C        -2.54010255830000    0.50940562340000   -0.00039720090000
C        -1.20446154710000   -0.02535086430000   -0.00052929950000
C        -0.77034844440000   -1.33127840950000   -0.00074201570000
N         0.55600218910000   -1.51151228150000   -0.00038769150000
C         1.21523248260000   -0.39677551070000    0.00003092330000
C         2.64758363280000   -0.31124410470000    0.00051790070000
C         3.33779936660000    0.82539888660000    0.00029349450000
S         0.17795393280000    1.02610404180000    0.00003382140000
H        -4.62288828330000    0.24410195320000    0.00116259090000
H        -3.63296894090000   -1.29588125640000    0.00185059710000
H        -2.60235308340000    1.58961348240000   -0.00120312550000
H        -1.40840315020000   -2.19601874690000   -0.00119890440000
H         3.14296908820000   -1.27227877250000    0.00108340340000
H         2.84542627120000    1.78442919540000   -0.00018964010000
H         4.41316423490000    0.83210528470000    0.00053745930000
