  24
        -42.12751115
 C         -1.1465476287       -3.7971587790       -0.2954284282
 C         -1.2135108093       -2.5481641822        0.1466848544
 C         -0.1386478352       -1.5638068497        0.0296448826
 C          1.1904780590       -1.9644424879        0.1052827774
 C          2.2359509787       -1.0619750869        0.0488955636
 C          1.9643161996        0.2956709876       -0.0862772714
 O          2.8999736301        1.2787259365       -0.1556577660
 C          4.2591320789        0.9218426799       -0.0845193165
 C          0.6380175597        0.7163123645       -0.1663006381
 C         -0.4121389465       -0.1882937826       -0.1101969227
 C         -1.7931182698        0.2644681428       -0.2567072017
 C         -2.2749891800        1.4487495462        0.0834973145
 F         -1.6280263117        2.4551863510        0.6576510455
 F         -3.5487207759        1.7999451912       -0.0943215423
 H         -1.9637888785       -4.4858133447       -0.1664787968
 H         -0.2832197980       -4.1753449986       -0.8167104618
 H         -2.1136665347       -2.2093888225        0.6428211691
 H          1.4136427870       -3.0124579145        0.2361712598
 H          3.2487784443       -1.4259104322        0.1175760872
 H          4.8128154014        1.8562292386       -0.1602471528
 H          4.5462191947        0.2639148381       -0.9112180945
 H          4.4984567017        0.4367025965        0.8672706963
 H          0.4567698956        1.7708902574       -0.2922677757
 H         -2.5033284422       -0.4244417182       -0.6880609622
