24
 energy: -42.127511145732 gnorm: 0.000025345147 xtb: 6.5.0 (unknown)
C           -1.14654762870000       -3.79715877900000       -0.29542842820000
C           -1.21351080930000       -2.54816418220000        0.14668485440000
C           -0.13864783520000       -1.56380684970000        0.02964488260000
C            1.19047805900000       -1.96444248790000        0.10528277740000
C            2.23595097870000       -1.06197508690000        0.04889556360000
C            1.96431619960000        0.29567098760000       -0.08627727140000
O            2.89997363010000        1.27872593650000       -0.15565776600000
C            4.25913207890000        0.92184267990000       -0.08451931650000
C            0.63801755970000        0.71631236450000       -0.16630063810000
C           -0.41213894650000       -0.18829378260000       -0.11019692270000
C           -1.79311826980000        0.26446814280000       -0.25670720170000
C           -2.27498918000000        1.44874954620000        0.08349731450000
F           -1.62802631170000        2.45518635100000        0.65765104550000
F           -3.54872077590000        1.79994519120000       -0.09432154230000
H           -1.96378887850000       -4.48581334470000       -0.16647879680000
H           -0.28321979800000       -4.17534499860000       -0.81671046180000
H           -2.11366653470000       -2.20938882250000        0.64282116910000
H            1.41364278700000       -3.01245791450000        0.23617125980000
H            3.24877844430000       -1.42591043220000        0.11757608720000
H            4.81281540140000        1.85622923860000       -0.16024715280000
H            4.54621919470000        0.26391483810000       -0.91121809450000
H            4.49845670170000        0.43670259650000        0.86727069630000
H            0.45676989560000        1.77089025740000       -0.29226777570000
H           -2.50332844220000       -0.42444171820000       -0.68806096220000
