  21
        -30.95887993
 C          3.8598001223       -0.5823349334       -0.1837544161
 C          3.0921248777        0.4712815840        0.0674932523
 C          1.6345566478        0.5078026660        0.0477567749
 C          0.9917194022        1.7495703437        0.0952943658
 C         -0.3824210877        1.8327076662        0.0603685015
 C         -1.1517753034        0.6710262882       -0.0113509028
 C         -2.5577501424        0.7951913789       -0.0425017052
 N         -3.6975259341        0.9257562195       -0.0703366708
 C         -0.5340160765       -0.5945830533       -0.0378599050
 C         -1.3645315539       -1.7927997055       -0.0967058405
 C         -0.9685101574       -3.0279729297        0.1853741817
 C          0.8546254233       -0.6446157748       -0.0141308027
 H          4.9332943666       -0.5112998581       -0.1513042173
 H          3.4607787919       -1.5487149360       -0.4405582881
 H          3.5615846925        1.4200786424        0.2970023684
 H          1.5816101488        2.6530138224        0.1489440576
 H         -0.8769010789        2.7929161816        0.0882604331
 H         -2.3966843503       -1.6174791527       -0.3741131151
 H          0.0342932250       -3.2625245458        0.5004831360
 H         -1.6496939507       -3.8587553768        0.1239772182
 H          1.3388782254       -1.6067823652       -0.0492122983
