  23
        -38.06172748
 C         -4.4834639933        0.3868433514       -0.1153307716
 C         -3.3039697275        0.7141569615        0.3927190411
 C         -2.0586569491       -0.0087850618        0.1213891336
 C         -2.0858608896       -1.3953825997       -0.0020839918
 C         -0.9261227537       -2.1063073642       -0.2415790564
 C          0.2730682196       -1.4354909594       -0.3712046734
 C          0.3260409269       -0.0461573355       -0.2581909103
 C          1.6131611720        0.6293227465       -0.4527522450
 C          2.7747862129        0.1899691330       -0.0022044435
 F          2.9894843989       -0.8859222499        0.7467560661
 F          3.9372249894        0.8039707501       -0.2254756851
 C         -0.8421834800        0.6789312440        0.0014436219
 C         -0.8275205831        2.1705644248        0.1690994173
 H         -5.3753104129        0.9415870999        0.1215597362
 H         -4.6021065746       -0.4345787253       -0.8022662088
 H         -3.2288170720        1.5682389529        1.0523630163
 H         -3.0243798672       -1.9157212678        0.1143225851
 H         -0.9557488742       -3.1818155229       -0.3293998617
 H          1.1772779275       -1.9866579911       -0.5773333041
 H          1.6421850511        1.5416607717       -1.0287175782
 H          0.1600589193        2.5904683623        0.0131522849
 H         -1.1403422480        2.4338540172        1.1796354362
 H         -1.5223332329        2.6372480398       -0.5279266910
