  27
        -32.82206203
 C         -3.8150780046       -0.8273754326        1.3469325406
 C         -2.7549830392       -0.0251331942        0.6028261461
 C         -2.4265658357       -0.6434340670       -0.7531719770
 C         -1.3435006072        0.1396609683       -1.5046722658
 C         -0.0298800817        0.0972778996       -0.7863608857
 C          0.7555313733       -1.0854279672       -0.7022050456
 C          1.9023873975       -0.9396476596        0.0051875065
 C          2.9552159027       -1.9493761321        0.2952568880
 S          2.0520883718        0.6868978451        0.5968958940
 C          0.5406633390        1.1456350240       -0.1312051879
 C          0.0474522175        2.5448795217        0.0127364633
 H         -4.0390098627       -0.3690240400        2.3074553944
 H         -3.4688985755       -1.8433500426        1.5244855929
 H         -4.7346421640       -0.8761532660        0.7671226223
 H         -1.8453139406        0.0211457441        1.2054570361
 H         -3.1119057678        0.9972383143        0.4554890440
 H         -3.3316585842       -0.6734219626       -1.3648043877
 H         -2.0895098659       -1.6717023432       -0.6050836825
 H         -1.6657217501        1.1743877797       -1.6300328440
 H         -1.2163207966       -0.2996530866       -2.4978667382
 H          0.4659407857       -2.0130145457       -1.1651928985
 H          2.6874468940       -2.9027965473       -0.1543756125
 H          3.0717031310       -2.0878050394        1.3701319551
 H          3.9171780408       -1.6296625243       -0.1053292242
 H          0.7678302287        3.1397910856        0.5684927993
 H         -0.9037333469        2.5674239047        0.5447027858
 H         -0.0991864003        3.0042688654       -0.9652803938
  27
        -32.82123734
 C         -3.7133617936        0.7839470594       -0.4314930919
 C         -2.7371410385       -0.3002817156       -0.8727359409
 C         -2.3418370325       -1.2440000807        0.2629134501
 C         -1.3791077955       -0.6091526207        1.2750964746
 C         -0.0543548056       -0.2916117166        0.6526729792
 C          0.8653405001       -1.3094715337        0.2747349251
 C          2.0038430156       -0.8456121388       -0.2948603617
 C          3.1716555522       -1.6114685217       -0.8063340565
 S          1.9793159788        0.8891665763       -0.3820153382
 C          0.4080099508        0.9559785134        0.3635380477
 C         -0.2328710039        2.2820780054        0.5916666095
 H         -3.9727865210        1.4246688718       -1.2714962847
 H         -3.2838064520        1.4059396721        0.3493307791
 H         -4.6284226950        0.3373007459       -0.0474272867
 H         -1.8361744932        0.1578620489       -1.2859366372
 H         -3.2029196935       -0.8864352884       -1.6686347084
 H         -1.8621115843       -2.1275766438       -0.1638010858
 H         -3.2422178530       -1.5736896374        0.7867873205
 H         -1.2211325829       -1.3170015051        2.0935946149
 H         -1.8241478141        0.2931758753        1.6935213888
 H          0.6739549585       -2.3567350571        0.4338882151
 H          3.0075104755       -2.6768466295       -0.6618467284
 H          4.0824591771       -1.3216399985       -0.2824627294
 H          3.3232934297       -1.4199737255       -1.8686113829
 H          0.5069138222        3.0743730307        0.5050600698
 H         -0.6780544013        2.3292961266        1.5849596672
 H         -1.0173441812        2.4671264457       -0.1434912086
  27
        -32.82040310
 C         -2.2967218563       -0.7182648750       -1.4457699206
 C         -3.1398738549       -0.2327891216       -0.2725158111
 C         -2.5353740289       -0.5524498151        1.0963740268
 C         -1.4071178217        0.3935141039        1.5282931890
 C         -0.1357320062        0.2083006658        0.7592029605
 C          0.6195467939       -0.9960019939        0.8048195590
 C          1.7416898916       -0.9749857476        0.0451924626
 C          2.7564367662       -2.0445393481       -0.1501572072
 S          1.9095531554        0.5573385665       -0.7561241676
 C          0.4387563793        1.1496006475       -0.0401767907
 C         -0.0309275115        2.5296687179       -0.3523543982
 H         -2.8070275292       -0.5141028872       -2.3849183624
 H         -2.1299634172       -1.7910594879       -1.3737475065
 H         -1.3304021259       -0.2246180911       -1.4668381463
 H         -4.1217934007       -0.7098795128       -0.3336606642
 H         -3.2964873705        0.8454000283       -0.3546835521
 H         -2.1696638033       -1.5809233825        1.0954890352
 H         -3.3274714626       -0.4837795618        1.8467383241
 H         -1.1942434537        0.2068135109        2.5856830498
 H         -1.7486198435        1.4254029634        1.4346250816
 H          0.3273868620       -1.8479905860        1.3939328476
 H          2.4899254912       -2.9193235366        0.4385646150
 H          3.7439962926       -1.7009773018        0.1574307017
 H          2.8158963659       -2.3322897931       -1.1998613577
 H          0.6558802602        3.0104352168       -1.0443926039
 H         -0.0864869622        3.1336232374        0.5540135959
 H         -1.0212282082        2.5074820708       -0.8079028066
  27
        -32.82036165
 C         -2.2602531362       -0.8506499396        1.4594169674
 C         -3.0211224259       -0.8333108652        0.1388016129
 C         -2.6659069230        0.3546467923       -0.7587857506
 C         -1.3949597823        0.1566056595       -1.5963717156
 C         -0.1327347612        0.0845400885       -0.7932863529
 C          0.5915626732       -1.1245414216       -0.5968004841
 C          1.7089267754       -0.9862010028        0.1579630273
 C          2.6922460106       -2.0238915080        0.5680672303
 S          1.9092266078        0.6663317017        0.6560912990
 C          0.4610365984        1.1465364614       -0.1811152496
 C          0.0288249788        2.5701739310       -0.1398159905
 H         -2.5926639741       -1.6851642667        2.0734415081
 H         -2.4372669567        0.0704341863        2.0111191644
 H         -1.1920560755       -0.9523120914        1.2949275130
 H         -4.0911993811       -0.7924997365        0.3589515897
 H         -2.8345996537       -1.7640217420       -0.4016096233
 H         -2.5624019944        1.2507141540       -0.1450635062
 H         -3.4915857089        0.5240845296       -1.4549935067
 H         -1.3202204982        0.9892886001       -2.3025566380
 H         -1.4943466314       -0.7624422292       -2.1776362343
 H          0.2772504003       -2.0669636444       -1.0114055110
 H          2.4100079216       -2.9871111235        0.1492081186
 H          2.7310972088       -2.1108472913        1.6540032667
 H          3.6921887405       -1.7673194555        0.2186335553
 H          0.8938661350        3.2283209980       -0.0870658774
 H         -0.5917801064        2.7621806778        0.7371327545
 H         -0.5497063920        2.8163861919       -1.0282140524
