  23
        -36.71938624
 C         -4.4336479862        0.1430838827       -0.0183080105
 C         -3.2470503853        0.7273253381       -0.1372292135
 C         -1.9457031455        0.0830709004       -0.0214519945
 C         -1.7822391787       -1.2871669321        0.1974543595
 C         -0.5248393414       -1.8443795651        0.2764904477
 C          0.6302082361       -1.0700695176        0.1501568110
 C          1.9266052519       -1.7464729271        0.1257756412
 C          2.9595446994       -1.3787798423       -0.6225546561
 C          0.4746653300        0.3143471686       -0.0195686386
 C          1.6128424088        1.2821303868       -0.0336920346
 O          1.6949624357        2.1951095940       -0.8065728919
 O          2.5239788102        1.1267513891        0.9495445651
 C         -0.7954404293        0.8634715283       -0.1254050947
 H         -5.3449883001        0.7062776313       -0.1213307132
 H         -4.5517878068       -0.9074356881        0.1852036964
 H         -3.2023447937        1.7900487221       -0.3399200338
 H         -2.6464578831       -1.9252054492        0.2947262706
 H         -0.4214671485       -2.9109221961        0.4176007763
 H          1.9830288625       -2.6540179595        0.7151339061
 H          2.9238154984       -0.5137770462       -1.2642914131
 H          3.8775833614       -1.9406176974       -0.6302536978
 H          2.3627720407        0.3303519074        1.4728988160
 H         -0.8770667081        1.9299908769       -0.2782949747
