23
 energy: -36.719386243785 gnorm: 0.000056594557 xtb: 6.4.1 (23d549d)
C        -4.43364798620000    0.14308388270000   -0.01830801050000
C        -3.24705038530000    0.72732533810000   -0.13722921350000
C        -1.94570314550000    0.08307090040000   -0.02145199450000
C        -1.78223917870000   -1.28716693210000    0.19745435950000
C        -0.52483934140000   -1.84437956510000    0.27649044770000
C         0.63020823610000   -1.07006951760000    0.15015681100000
C         1.92660525190000   -1.74647292710000    0.12577564120000
C         2.95954469940000   -1.37877984230000   -0.62255465610000
C         0.47466533000000    0.31434716860000   -0.01956863860000
C         1.61284240880000    1.28213038680000   -0.03369203460000
O         1.69496243570000    2.19510959400000   -0.80657289190000
O         2.52397881020000    1.12675138910000    0.94954456510000
C        -0.79544042930000    0.86347152830000   -0.12540509470000
H        -5.34498830010000    0.70627763130000   -0.12133071320000
H        -4.55178780680000   -0.90743568810000    0.18520369640000
H        -3.20234479370000    1.79004872210000   -0.33992003380000
H        -2.64645788310000   -1.92520544920000    0.29472627060000
H        -0.42146714850000   -2.91092219610000    0.41760077630000
H         1.98302886250000   -2.65401795950000    0.71513390610000
H         2.92381549840000   -0.51377704620000   -1.26429141310000
H         3.87758336140000   -1.94061769740000   -0.63025369780000
H         2.36277204070000    0.33035190740000    1.47289881600000
H        -0.87706670810000    1.92999087690000   -0.27829497470000
