  28
        -47.56176057
 C          0.6375378172       -3.9911643508       -0.1344542094
 C          1.3889885562       -2.9015459050       -0.0293504123
 C          0.9135387998       -1.5254969112        0.0028551808
 C         -0.4257004833       -1.1667648806       -0.0425834584
 C         -0.8448128600        0.1601630678        0.0062841951
 C         -2.2820829004        0.4604598934        0.0180697295
 O         -2.7746809513        1.5702107903        0.1168053240
 O         -3.0495502802       -0.6374507808       -0.0774180770
 C         -4.4499885018       -0.4148120450       -0.0603681748
 C          0.1068025282        1.2095384162        0.0768551811
 N         -0.2859902453        2.4980712018        0.1179960085
 C          1.4825866112        0.8698249464        0.0996395554
 C          2.5522105994        1.8703515788        0.1623868949
 C          2.5961158056        3.0070166387       -0.5204286738
 C          1.8314220353       -0.4699427318        0.0873564142
 F          3.1489671161       -0.7701546454        0.1359677370
 H          1.0811581604       -4.9714118496       -0.1503584635
 H         -0.4356056597       -3.9568135227       -0.2094732647
 H          2.4635518629       -3.0091191024        0.0388926194
 H         -1.1792725450       -1.9331009345       -0.1044552349
 H         -4.9131225190       -1.3913987462       -0.1754415090
 H         -4.7406872618        0.2473740294       -0.8787954743
 H         -4.7514889503        0.0435884338        0.8840738774
 H         -1.2781523428        2.6685782302        0.2225263331
 H          0.3828601674        3.2005004773        0.3833500713
 H          3.3883567117        1.5971371388        0.7945257251
 H          1.8319494526        3.2906277088       -1.2248860669
 H          3.4343689730        3.6769363527       -0.4307890707
