  26
        -41.23391534
 C         -4.4491436000       -0.7783938144        0.2650236687
 C         -3.6370722546        0.2648308020        0.3697364337
 C         -2.2042570663        0.2436058098        0.0803283778
 C         -1.4560503651       -0.9067268741        0.3067905829
 C         -0.0915206903       -0.9777354719        0.0690706967
 C          0.6251006478       -2.2714772684        0.3054817162
 C          0.5525996429        0.1645250869       -0.4159609073
 C          1.9877348275        0.2339415006       -0.7015217921
 C          2.9722409506       -0.1696218632        0.0811796271
 F          2.8740786701       -0.7123052964        1.2891910021
 F          4.2632509743       -0.0535266427       -0.2364298156
 C         -0.1997351099        1.3093945025       -0.6793514266
 C         -1.5571789406        1.3791478210       -0.4306419627
 C         -2.3124323634        2.6388360298       -0.7314231477
 H         -5.4973710863       -0.7036801038        0.4992735020
 H         -4.1065126374       -1.7410446430       -0.0757772843
 H         -4.0401055293        1.2194089371        0.6812778304
 H         -1.9558239544       -1.7794875757        0.7007449473
 H         -0.0631098628       -3.1069197598        0.1992249371
 H          1.0364146812       -2.3017576275        1.3138914868
 H          1.4451228866       -2.4016897826       -0.3976939574
 H          2.2829305403        0.7190163958       -1.6210962724
 H          0.3075309424        2.1780518454       -1.0759741146
 H         -1.6662732556        3.3638830926       -1.2198936836
 H         -2.6929570366        3.0862486790        0.1869515047
 H         -3.1605757226        2.4335750604       -1.3826407290
