  22
        -29.87958032
 C         -3.8902608594        0.7784504916        0.1689033187
 C         -2.9294818142       -0.1343409462        0.0949281066
 C         -1.4974498036        0.1206133462       -0.0003481812
 C         -0.9296136392        1.3939686318       -0.0854896606
 C          0.4430571648        1.4955598555       -0.1543363328
 C          1.2457141441        0.3520506873       -0.1213964940
 C          2.6944644289        0.5273362421       -0.1677792984
 C          3.6034670855       -0.1978694791        0.4700506962
 C          0.5803184743       -0.8865617443       -0.0792653285
 C          1.2900173224       -2.2040487581       -0.1416545739
 N         -0.7361969681       -0.9718368012       -0.0213936106
 H         -4.9265721707        0.4952719856        0.2392453492
 H         -3.6917313838        1.8369647712        0.1646168070
 H         -3.1747597658       -1.1876686566        0.1085525716
 H         -1.5457958743        2.2783654443       -0.1046386605
 H          0.9126933815        2.4681469648       -0.2194820604
 H          3.0191509701        1.3790960190       -0.7554895405
 H          3.3436564817       -1.0185425274        1.1144867662
 H          4.6531704858        0.0306362581        0.3916336490
 H          2.1913994658       -2.1372545155       -0.7456673066
 H          0.6139509154       -2.9448562574       -0.5605929730
 H          1.5636503439       -2.5330001854        0.8599310190
