  23
        -42.43603071
 C          0.6147944483        3.4908632294       -0.4987588032
 C         -0.0309422464        2.5651750713        0.1982070001
 C          0.2306054535        1.1350871176        0.1098366614
 C         -0.7617733071        0.1820550041        0.0860118995
 C         -2.1728867661        0.4395346232        0.1250681151
 C         -3.1410644936       -0.4694286480        0.0833330979
 F         -2.9999746509       -1.7847720858       -0.0064929415
 F         -4.4350297050       -0.1623518847        0.1256131287
 S         -0.1404948721       -1.4473492590       -0.0583702248
 C          1.4911301397       -0.8511306553       -0.0615378257
 C          2.6431512551       -1.6202434273       -0.1343313404
 C          3.8634083079       -0.9801048127       -0.0903093087
 C          3.9329145889        0.4067378076        0.0441663420
 C          2.7904202860        1.1707932886        0.1137000764
 C          1.5387085308        0.5526247322        0.0396115581
 H          0.3832543322        4.5367903843       -0.3919187487
 H          1.3741909282        3.2380112714       -1.2188920423
 H         -0.8220929450        2.8597089799        0.8765937428
 H         -2.4875577704        1.4698750590        0.1890685929
 H          2.5751327109       -2.6937170183       -0.2172795888
 H          4.7734821914       -1.5577178591       -0.1467469421
 H          4.8995948060        0.8845957608        0.0997808484
 H          2.8518426212        2.2401850620        0.2419983673
