  23
        -50.74777672
 C          1.2288779488       -3.9312796926       -0.0934341708
 C          0.1047015454       -3.2416846922        0.0570946912
 C         -0.0293317450       -1.7887122826        0.0428219294
 C          1.0699350257       -0.9316676883        0.0389875274
 C          0.9153054122        0.4520021008        0.0192250096
 C          2.0338360548        1.3830983831        0.0123813193
 C          3.3308616121        1.1111723530       -0.0006341757
 F          3.9145796038       -0.0795416419       -0.0099442635
 F          4.2688821888        2.0509085037       -0.0080057411
 C         -0.3743103651        0.9895629906        0.0062552982
 C         -1.4690984136        0.1434175243        0.0176519915
 C         -2.8661621983        0.6969894817       -0.0076161719
 F         -2.9158958102        2.0254982522        0.1580565988
 F         -3.4896056175        0.4373924317       -1.1733365031
 F         -3.6421607582        0.1636757723        0.9527065464
 C         -1.3091231707       -1.2338728244        0.0361935794
 H          1.2270682851       -5.0072380326       -0.0739130740
 H          2.1869551027       -3.4656884838       -0.2481824163
 H         -0.8273223276       -3.7753576141        0.1922065127
 H          2.0581439596       -1.3570649584        0.0596283392
 H          1.7851233233        2.4342899355        0.0150269889
 H         -0.5178779288        2.0588034555       -0.0078432093
 H         -2.1796428829       -1.8727859464        0.0444985513
  23
        -50.74703357
 C          0.6701888709       -4.6223658005       -0.1745259520
 C         -0.2949730993       -3.7174536816       -0.2810801551
 C         -0.1435965308       -2.2695860433       -0.1824640143
 C          1.0957733251       -1.6383289727       -0.1247921458
 C          1.2149072366       -0.2526693390       -0.0269673598
 C          2.5538211166        0.3141513720        0.0283265257
 C          2.9037835246        1.5870498070        0.1485864580
 F          2.1140094562        2.6443490524        0.2475565816
 F          4.1701615026        1.9858861411        0.1894887476
 C          0.0557520780        0.5231892998        0.0110297395
 C         -1.1811341109       -0.1004188159       -0.0543321798
 C         -2.4151304037        0.7564478566        0.0094750908
 F         -2.3202663881        1.8521495817       -0.7606701208
 F         -3.5252483472        0.1133231338       -0.3797786654
 F         -2.6556065721        1.1979580611        1.2596942773
 C         -1.2925849714       -1.4773496985       -0.1485772702
 H          0.4579024956       -5.6740264912       -0.2574437245
 H          1.6996857752       -4.3643608719        0.0050862570
 H         -1.3117781626       -4.0500417177       -0.4455739678
 H          1.9950490413       -2.2329278365       -0.1627193490
 H          3.3761721841       -0.3836556990       -0.0331118324
 H          0.1012415363        1.5970948821        0.0820833692
 H         -2.2682776327       -1.9367342150       -0.1963888461
  23
        -50.74697209
 C          0.6423361738       -4.6064058573        0.0837423834
 C         -0.3142024445       -3.7006195400       -0.0782835202
 C         -0.1501698456       -2.2510589070       -0.0507407632
 C          1.0955408931       -1.6282210301       -0.0416375807
 C          1.2273639905       -0.2411849170       -0.0129983617
 C          2.5719929406        0.3147633709       -0.0078742487
 C          2.9363314632        1.5891127967        0.0156207787
 F          2.1590258708        2.6599623003        0.0400909379
 F          4.2073605733        1.9753626890        0.0177355069
 C          0.0758886142        0.5490191598        0.0073217279
 C         -1.1647566966       -0.0656267645       -0.0054153417
 C         -2.4268472757        0.7514000909        0.0056075406
 F         -2.2148204187        2.0683044336        0.1030290246
 F         -3.1555894714        0.5640985335       -1.1119356623
 F         -3.2339995828        0.4176170628        1.0302749279
 C         -1.2892477351       -1.4463757047       -0.0381771051
 H          0.4223151649       -5.6592907204        0.0525496836
 H          1.6720647049       -4.3470845539        0.2609442686
 H         -1.3328368212       -4.0324052079       -0.2334383089
 H          1.9890296417       -2.2322681954       -0.0658191744
 H          3.3868746299       -0.3942392511       -0.0256379992
 H          0.1358322236        1.6240170707        0.0307482385
 H         -2.2720400886       -1.8937465196       -0.0483259560
