  14
        -25.28938804
 C         -3.7042404997       -0.2462274036       -0.1283888300
 C         -2.7592408736        0.6671395522        0.0848403646
 C         -1.3296395857        0.4474792284        0.0620848242
 C         -0.7299632970       -0.7553609303        0.0555160292
 C          0.6892621930       -1.0071012463        0.0311649927
 C          1.6779001300       -0.1200464678       -0.0086133498
 F          1.5812411614        1.2040215350       -0.0338443521
 F          2.9653333424       -0.4611318048       -0.0284047094
 H         -4.7487346394        0.0103633739       -0.0934909125
 H         -3.4765296335       -1.2734361016       -0.3558229012
 H         -3.0580128405        1.6890928402        0.2810280262
 H         -0.7282072250        1.3447632195        0.0659622437
 H         -1.3361107102       -1.6492293566        0.0791940866
 H          1.0062291220       -2.0395555149        0.0452760544
