  19
        -28.27070463
 C         -3.0241718213        0.5970073857       -0.3977738804
 C         -2.3391104573       -0.3459081109        0.2339084448
 C         -0.9100632330       -0.5836657304        0.1293411786
 N         -0.4693305072       -1.8307478727        0.1726657873
 N          0.8605591004       -1.7595528954        0.0186177789
 C          1.3011156242       -0.4859287791       -0.0851477486
 N          2.6405155338       -0.1918371239       -0.2157974580
 C          0.1748784456        0.3343085807       -0.0121614639
 C          0.1134761116        1.7754156228        0.0234912147
 C          1.1337817892        2.6027721293        0.2330504852
 H         -4.0906527173        0.6871625106       -0.2785219477
 H         -2.5625105390        1.2982054239       -1.0718953374
 H         -2.8554727945       -1.0697487633        0.8508146785
 H          1.4112725168       -2.6029122219        0.0291414857
 H          3.2056462300       -0.9564792430       -0.5571138555
 H          2.8192657713        0.6757296156       -0.6997318505
 H         -0.8756543365        2.1922596357       -0.0984942151
 H          2.1356885489        2.2623329466        0.4284072381
 H          0.9864852404        3.6692429546        0.2519311313
