  20
        -39.12168236
 C          0.5651505763       -3.1830120117        0.0893242209
 C          0.4441809855       -1.9574166669        0.5794175654
 C         -0.6235876221       -1.0212671689        0.2345942463
 C         -1.9109575824       -1.4894892243       -0.0282092274
 C         -2.9589527810       -0.6247274727       -0.2739715905
 C         -2.7513245795        0.7447757905       -0.2463733851
 C         -1.4792937121        1.2097298258        0.0132839985
 F         -1.2708650488        2.5444203132        0.0337430595
 C         -0.3927601428        0.3645134737        0.2377790630
 C          0.9158820504        0.9769407250        0.4606795794
 C          2.0610615813        0.5732033109       -0.0627142347
 F          2.2521900235       -0.4485936421       -0.8869557130
 F          3.2242162104        1.1798384488        0.1565316667
 H          1.3664154227       -3.8333656928        0.3934462323
 H         -0.1103332279       -3.5719769792       -0.6536599228
 H          1.1717895906       -1.5906175615        1.2925526734
 H         -2.0888051084       -2.5533535617       -0.0128241108
 H         -3.9456666774       -1.0125242868       -0.4746153627
 H         -3.5509416313        1.4465519388       -0.4203758489
 H          0.9427362755        1.8852742910        1.0452940979
