  43
        -70.92413316
 C         -4.1913539921        2.5525791541       -1.0015189426
 C         -4.2376254366        1.4525951527        0.0582691925
 C         -5.4166639402        0.5120960920       -0.1937708603
 O         -3.0807752769        0.5900028731       -0.0600730023
 C         -1.8463207128        1.0750763696        0.1131693883
 N         -0.9247404621        0.0570626940       -0.0071460121
 C          0.4572081366        0.3062889057       -0.0715360017
 C          1.3442973594       -0.6362493739        0.4486350200
 C          2.7061031962       -0.4334065533        0.3875603258
 C          3.2295496823        0.7241713983       -0.1926708677
 C          4.6510523592        1.0059806015       -0.2878956720
 C          5.6700776713        0.2604878988        0.1142442779
 F          5.6340352962       -0.9308183993        0.7019748865
 F          6.9434028267        0.6289039950       -0.0299144829
 C          2.3326316972        1.6623611910       -0.7091732899
 C          0.9699279350        1.4608808651       -0.6578084612
 C         -1.3611167450       -1.2945368997       -0.0652234885
 C         -0.9967729520       -2.0821800174       -1.1502854442
 C         -1.4102614825       -3.4002802369       -1.2144815797
 C         -2.1893589237       -3.9362659670       -0.2028395322
 C         -2.5480875674       -3.1516339416        0.8805817154
 C         -2.1318248422       -1.8352286048        0.9563758848
 O         -1.5567072447        2.2240614820        0.3357337272
 C         -4.3151971030        2.0465116299        1.4642053228
 H         -4.0812751525        2.1125124610       -1.9905088996
 H         -3.3533843063        3.2188136953       -0.8163761768
 H         -5.1127473959        3.1272416204       -0.9718608779
 H         -5.3345156720        0.0704583081       -1.1833116102
 H         -6.3514219054        1.0600415364       -0.1235999087
 H         -5.4164425698       -0.2900186702        0.5396062448
 H          0.9582776225       -1.5339688962        0.9078836881
 H          3.3613519526       -1.1808603591        0.8032973892
 H          4.9254502875        1.9456853000       -0.7454485369
 H          2.7138318817        2.5633378362       -1.1667279807
 H          0.3017338896        2.2019632608       -1.0629944958
 H         -0.3892677078       -1.6563447144       -1.9352304518
 H         -1.1269672472       -4.0087166059       -2.0602800952
 H         -2.5141936907       -4.9643507634       -0.2570904926
 H         -3.1485616585       -3.5690658345        1.6751953897
 H         -2.4001742367       -1.2222491475        1.8033554412
 H         -5.2276823569        2.6271888933        1.5651804129
 H         -3.4625752750        2.6947817121        1.6470455896
 H         -4.3203543362        1.2515468410        2.2072016295
  43
        -70.92387123
 C         -4.1277204704        2.4390001918       -0.8923555844
 C         -4.0221708554        1.5585920606        0.3522837615
 C         -5.2852020818        0.7134196821        0.5216730063
 O         -2.9724268317        0.5750957065        0.1856429274
 C         -1.7043821567        0.9557122365       -0.0034856311
 N         -0.9039919247       -0.1542464907       -0.1735668544
 C          0.4992079747       -0.0636668269       -0.1776328089
 C          1.1783781185        0.8712786542        0.5995354990
 C          2.5567281739        0.9255438939        0.5842999760
 C          3.3026963343        0.0438342886       -0.2003426392
 C          4.7539296077        0.0445362480       -0.2581019901
 C          5.6074732336        0.8056526597        0.4114786812
 F          5.3388316865        1.7521042725        1.3033582038
 F          6.9302117681        0.7099747444        0.2719633961
 C          2.6115824012       -0.8918978358       -0.9745498839
 C          1.2354646843       -0.9470681278       -0.9668818500
 C         -1.4877731676       -1.4377011548       -0.3467558200
 C         -2.3982105123       -1.6715207449       -1.3698986997
 C         -2.9558157986       -2.9278206191       -1.5206437128
 C         -2.6007752293       -3.9571045627       -0.6647183031
 C         -1.6833525610       -3.7268423262        0.3467507244
 C         -1.1275638594       -2.4711343599        0.5096530126
 O         -1.2948247597        2.0892110339       -0.0220954184
 C         -3.7672108298        2.4007846851        1.6016019833
 H         -4.2824282559        1.8227442196       -1.7757595031
 H         -3.2182425504        3.0192925365       -1.0217223070
 H         -4.9680447039        3.1193575118       -0.7875943127
 H         -5.4341417603        0.0867867053       -0.3537360212
 H         -6.1495257304        1.3577246468        0.6508271802
 H         -5.1869824780        0.0685993538        1.3908457834
 H          0.6249087440        1.5635911869        1.2114524274
 H          3.0514843527        1.6605745026        1.1971995511
 H          5.2091193611       -0.6676508826       -0.9315451973
 H          3.1650001718       -1.5819374223       -1.5945428494
 H          0.7212245905       -1.6749448971       -1.5766044900
 H         -2.6640853372       -0.8689232589       -2.0408597197
 H         -3.6649111929       -3.1060428101       -2.3154356681
 H         -3.0366445978       -4.9371388332       -0.7871842473
 H         -1.4024750194       -4.5264645676        1.0158323221
 H         -0.4119139098       -2.2831764148        1.2965007079
 H         -4.6119773141        3.0612345244        1.7754953425
 H         -2.8702316663        3.0005468978        1.4748394204
 H         -3.6404676040        1.7541045854        2.4674170172
  43
        -70.92356484
 C         -3.0962042529        2.6328078887        1.6823483752
 C         -2.5480926441        2.6295975689        0.2558777189
 C         -1.5776314837        3.7931904968        0.0496123147
 O         -1.7284360036        1.4563320878        0.0337530024
 C         -2.2486870808        0.2294254953        0.1444092239
 N         -1.2758904584       -0.7223311798       -0.0791484372
 C          0.0922087382       -0.3851887181       -0.1491039853
 C          0.6949432865        0.4039193253        0.8263264446
 C          2.0347237128        0.7199250077        0.7427242334
 C          2.8162925184        0.2456256625       -0.3133139698
 C          4.2310597639        0.5398505586       -0.4624242283
 C          5.0052490182        1.2878241939        0.3105622367
 F          4.6695527108        1.9486941175        1.4124947616
 F          6.2999506529        1.4867821348        0.0677684904
 C          2.2052114133       -0.5609110619       -1.2772746495
 C          0.8651770828       -0.8727586442       -1.1999135358
 C         -1.6307794517       -2.0812828771       -0.2545271991
 C         -2.7538566205       -2.4449939137       -0.9876503436
 C         -3.0705725574       -3.7825428527       -1.1424967447
 C         -2.2694412179       -4.7639799562       -0.5845963303
 C         -1.1456564225       -4.4016517701        0.1391619341
 C         -0.8269405732       -3.0678306103        0.3093926566
 O         -3.3983030049       -0.0397461331        0.3868246163
 C         -3.6808976044        2.6864663407       -0.7681850198
 H         -2.2798595367        2.5661255796        2.3987369734
 H         -3.7656440343        1.7899030028        1.8308577117
 H         -3.6440781317        3.5537846808        1.8601824478
 H         -0.7558167298        3.7239685150        0.7573538219
 H         -2.0935647506        4.7375628730        0.1938288401
 H         -1.1666230308        3.7606623041       -0.9558499964
 H          0.1081165060        0.7667884479        1.6554379782
 H          2.4741134367        1.3314823093        1.5133654021
 H          4.7274011562        0.0981377615       -1.3146030270
 H          2.7915396941       -0.9409082710       -2.1008861676
 H          0.4053040961       -1.4960185419       -1.9523681510
 H         -3.3798001199       -1.6845314857       -1.4252064303
 H         -3.9465724788       -4.0580394498       -1.7104419087
 H         -2.5193457745       -5.8064544131       -0.7119435654
 H         -0.5166620078       -5.1603244952        0.5807589472
 H          0.0449099948       -2.7835894266        0.8803537869
 H         -4.2259572604        3.6196969920       -0.6584864252
 H         -4.3664098983        1.8571710972       -0.6172624129
 H         -3.2750916004        2.6309926407       -1.7762579332
  43
        -70.92347598
 C         -1.9933921318        3.8570238216       -0.2206725928
 C         -2.8778675811        2.6188852323       -0.0681802668
 C         -3.8238778259        2.4847897182       -1.2607310730
 O         -1.9322917993        1.5221289011       -0.0505691941
 C         -2.3550667939        0.2598684558        0.0823033057
 N         -1.2812286722       -0.6046160654        0.0948529595
 C          0.0472896480       -0.1429422680        0.2042544751
 C          0.4177746642        0.7731800644        1.1844891569
 C          1.7250232035        1.2007806832        1.2714363496
 C          2.7043937063        0.7225243609        0.3967301853
 C          4.0612583164        1.2181330614        0.5503776963
 C          5.1390464873        0.9081187396       -0.1557757462
 F          5.2355190947        0.0652603911       -1.1772000509
 F          6.3396856545        1.4341249778        0.0826579006
 C          2.3257010938       -0.2086962120       -0.5731028328
 C          1.0171415890       -0.6334931244       -0.6665857102
 C         -1.4870944929       -2.0014270107       -0.0117497050
 C         -2.4399206500       -2.5264965235       -0.8761394482
 C         -2.6137008145       -3.8963595364       -0.9576923681
 C         -1.8358287930       -4.7504055746       -0.1949503286
 C         -0.8804370517       -4.2272174938        0.6603002520
 C         -0.7069431259       -2.8597190429        0.7575877164
 O         -3.5014191659       -0.1031257298        0.1665752346
 C         -3.6553374454        2.6721415769        1.2464535005
 H         -1.4161151345        3.7903168985       -1.1389333131
 H         -1.3012180095        3.9266954810        0.6143126191
 H         -2.6079964960        4.7516101546       -0.2496193462
 H         -3.2517964588        2.3971798892       -2.1821163028
 H         -4.4601165675        3.3630841016       -1.3228940266
 H         -4.4488468920        1.6032707776       -1.1478554511
 H         -0.3211002068        1.1437506369        1.8774736846
 H          2.0003412537        1.9114750513        2.0369103534
 H          4.2252441506        1.9357854909        1.3414702641
 H          3.0517097476       -0.6025182630       -1.2648656739
 H          0.7347521989       -1.3532957169       -1.4203575243
 H         -3.0465761494       -1.8655871823       -1.4734292339
 H         -3.3581004227       -4.2977016745       -1.6289674736
 H         -1.9730696469       -5.8188431328       -0.2656624849
 H         -0.2707893850       -4.8857406172        1.2609961315
 H          0.0329785853       -2.4499403936        1.4295263472
 H         -4.3032378342        3.5440390939        1.2517472918
 H         -2.9679402534        2.7403599222        2.0873066788
 H         -4.2642112353        1.7794445360        1.3604132836
