  23
        -38.66432394
 C         -3.6053591099       -2.3746001860       -0.0016283263
 C         -3.2385856793       -1.0966096051       -0.0008162202
 C         -1.8748707774       -0.6340064292       -0.0003168764
 C         -0.6703639700       -1.2907459243       -0.0000314692
 C          0.3345702364       -0.2922855626       -0.0000773393
 C          1.7658636069       -0.6001835980        0.0001398417
 O          2.2132878322       -1.7212865590        0.0029251434
 O          2.5478150499        0.4963292225       -0.0022097086
 C          3.9458019253        0.2496120965       -0.0016196516
 C         -0.3342792112        0.9276139874       -0.0001649626
 C          0.1596402851        2.2784687239        0.0002311858
 C         -0.6299804954        3.3509500363        0.0036184231
 O         -1.6598109538        0.7052413362       -0.0002383401
 H         -4.6424100071       -2.6590112956       -0.0017089140
 H         -2.8834971054       -3.1722237253       -0.0016709988
 H         -3.9781091357       -0.3072451263       -0.0004329789
 H         -0.4951622169       -2.3458664066        0.0000888976
 H          4.4265871641        1.2244395837        0.0072595307
 H          4.2325971779       -0.3120765132       -0.8930931366
 H          4.2293114206       -0.3270706770        0.8812760715
 H          1.2344538479        2.3676853883       -0.0019974877
 H         -1.7028449838        3.2586558221        0.0064993498
 H         -0.2249033496        4.3472058164        0.0041356839
