  22
        -32.98959472
 C          4.6138959978        0.2449612113        0.0004241962
 C          3.1834058016       -0.1586948671       -0.0004146010
 C          2.6548973639       -1.4124145262       -0.0025708103
 C          1.2466807230       -1.4309970728       -0.0022808437
 C          0.6903150528       -0.1808886405        0.0000146004
 C         -0.6902951002        0.1808963945        0.0000015576
 C         -1.2466641281        1.4309940727       -0.0022278757
 C         -2.6548907585        1.4124132026       -0.0025186740
 C         -3.1833976711        0.1586982239       -0.0004610106
 C         -4.6138967468       -0.2449332042        0.0003312267
 S         -1.9310026098       -1.0449620667        0.0020593338
 S          1.9309847028        1.0449471691        0.0019721480
 H          5.2481881524       -0.6382781320       -0.0093583749
 H          4.8470735815        0.8359413489        0.8860807852
 H          4.8433246239        0.8531300492       -0.8744187937
 H          3.2578799534       -2.3034450654       -0.0046396586
 H          0.6555850987       -2.3297880796       -0.0039960655
 H         -0.6555764288        2.3297871838       -0.0038095694
 H         -3.2578787628        2.3034400864       -0.0044567144
 H         -5.2481902587        0.6383035556       -0.0094319873
 H         -4.8471246196       -0.8359531269        0.8859518075
 H         -4.8433139529       -0.8530785827       -0.8745375346
  22
        -32.98724727
 C          4.3941558586       -0.4222504684       -0.8453016932
 C          3.1121596285       -0.3005986233       -0.1028984278
 C          2.9087008324       -0.2855357292        1.2429255915
 C          1.5554252079       -0.1551959329        1.6080335040
 C          0.7114035605       -0.0693924277        0.5317718533
 C         -0.7114439145        0.0690593083        0.5317739625
 C         -1.5555463242        0.1541041589        1.6080371045
 C         -2.9087946226        0.2846910553        1.2429189818
 C         -3.1121418896        0.3007332653       -0.1029093050
 C         -4.3940801054        0.4228891173       -0.8453182395
 S         -1.6101215631        0.1523397273       -0.9584119089
 S          1.6101842740       -0.1517519087       -0.9584060008
 H          5.2217453102       -0.5081502271       -0.1450857524
 H          4.5574563918        0.4502461909       -1.4777853992
 H          4.3848767962       -1.3017556767       -1.4889389426
 H          3.7083233450       -0.3659602401        1.9584405015
 H          1.2162374949       -0.1261324224        2.6273587367
 H         -1.2164343839        0.1243769029        2.6273688869
 H         -3.7084837579        0.3645538044        1.9584250619
 H         -5.2217122741        0.5082971349       -0.1450929449
 H         -4.5573245170       -0.4491792929       -1.4784064914
 H         -4.3847513883        1.3028369846       -1.4883495052
