  53
        -62.36059806
 C         -2.6262805798        2.3158242957       -1.6605615735
 C         -1.4623248038        2.9565013693       -1.5811139460
 C         -0.2139534293        2.3626899613       -1.1839337430
 C          0.0446346793        1.1359364489       -0.6296755288
 C          1.4079327768        0.8931777929       -0.3783300295
 C          1.8890768659       -0.4042197609        0.1920736536
 C          2.0907811139       -1.4365041422       -0.9241903316
 C          2.5956429597       -2.7905978741       -0.4207369201
 C          1.7421542363       -3.4292493082        0.6774883342
 C          0.2772211674       -3.6129364097        0.2878033132
 C         -0.5441858842       -4.1655066871        1.4502228716
 C         -2.0402621041       -4.2735974570        1.1474423991
 C         -2.7143643799       -2.9596485110        0.7424393322
 C         -2.5148606121       -1.8281341674        1.7489117394
 C         -3.3047046763       -0.5787794554        1.3648115827
 C         -3.0067272654        0.5979875955        2.2910645211
 C         -3.7822398745        1.8481485507        1.8945562768
 C          2.2126169453        1.9471319110       -0.7575722930
 C          3.6434209983        2.0422720699       -0.6775114895
 C          4.3626088356        3.0858164956       -1.0830977346
 S          1.2610885938        3.2549281424       -1.4018700082
 H         -3.5253307324        2.8219343346       -1.9650478091
 H         -2.7182896506        1.2668212582       -1.4383644468
 H         -1.4073108989        4.0055597359       -1.8419741376
 H         -0.7269255266        0.4261309278       -0.3900610849
 H          1.1389397706       -0.7676249539        0.8956360708
 H          2.8244809437       -0.2666354951        0.7365023216
 H          2.8154501641       -1.0402414289       -1.6403205235
 H          1.1494899147       -1.5677488734       -1.4609919944
 H          3.6117699512       -2.6689365298       -0.0364979267
 H          2.6467996482       -3.4717647305       -1.2737102527
 H          1.7976389098       -2.8179786436        1.5810026828
 H          2.1718394904       -4.4033588582        0.9247786232
 H          0.2051091405       -4.2872088976       -0.5685633721
 H         -0.1353573764       -2.6507073512       -0.0102147818
 H         -0.3989306021       -3.5289429561        2.3255577469
 H         -0.1720444698       -5.1595966777        1.7111723748
 H         -2.5401785539       -4.6646737676        2.0372057523
 H         -2.1889084580       -4.9976052826        0.3423200915
 H         -3.7855133127       -3.1480248910        0.6319884688
 H         -2.3442301100       -2.6425911253       -0.2349390674
 H         -1.4565003010       -1.5669920042        1.8062301149
 H         -2.8267394090       -2.1640508646        2.7405867894
 H         -4.3742687490       -0.8001779548        1.3912430526
 H         -3.0570410643       -0.2976206046        0.3380755986
 H         -1.9363493935        0.8173417012        2.2643600022
 H         -3.2618987543        0.3200931783        3.3164845351
 H         -3.5023585181        2.1691362409        0.8929858783
 H         -3.5722111119        2.6620755296        2.5845651301
 H         -4.8527030085        1.6538820079        1.9081615823
 H          4.1405126852        1.1779275467       -0.2571793138
 H          3.8967065591        3.9578259034       -1.5116920389
 H          5.4348915651        3.0996546086       -1.0008416333
