  26
        -48.71743907
 C          0.1914863201       -3.7838305765       -0.3226304092
 C          0.9448026967       -2.8514673746        0.2439142712
 C          0.7026241591       -1.4121658434        0.1314369948
 C         -0.5891362945       -0.9430155581        0.1187903719
 C         -0.8961715864        0.4316497792        0.0502724124
 C         -2.2507806338        0.9562660626        0.0366182306
 C         -3.3904459162        0.2822895257       -0.0024258562
 F         -3.5640931347       -1.0340365881       -0.0389640005
 F         -4.5824301631        0.8729353517       -0.0147911092
 C          0.1638272603        1.3153141282        0.0089599458
 F         -0.0851984632        2.6437676419       -0.0404774546
 C          1.5091806764        0.9010653538        0.0093589947
 C          2.5688490909        1.8310476136       -0.0532175515
 C          3.8654435920        1.4018654935       -0.0770399096
 C          4.1500522328        0.0297677575       -0.0476023793
 C          3.1397627328       -0.8915061153        0.0176279499
 C          1.7892682759       -0.4911352843        0.0627318951
 H          0.4002570710       -4.8320757244       -0.1953887578
 H         -0.6497642238       -3.5371258392       -0.9482802572
 H          1.7967290537       -3.1452756394        0.8421016759
 H         -1.3954371895       -1.6529427321        0.1913699252
 H         -2.3491239410        2.0322959195        0.0504765432
 H          2.3321050924        2.8837843711       -0.0871397665
 H          4.6749509486        2.1144359751       -0.1256261076
 H          5.1783144915       -0.2987963129       -0.0806734208
 H          3.3798673384       -1.9430742768        0.0225556173
  26
        -48.71392021
 C          0.7581152808       -4.1950727195        0.0667122542
 C          1.3847078691       -3.1253578151       -0.4030987665
 C          0.8812680519       -1.7557344506       -0.2895883637
 C         -0.4648861492       -1.5119130515       -0.4140761296
 C         -1.0137827722       -0.2156383759       -0.3471232781
 C         -2.4584008326       -0.0568746812       -0.4855119912
 C         -3.2121396726        0.8287244038        0.1468211815
 F         -2.8322084836        1.7085377952        1.0566956946
 F         -4.5300103587        0.9128674296       -0.0222362429
 C         -0.1435016634        0.8392135365       -0.1909877936
 F         -0.6098808307        2.1040353877       -0.2156817217
 C          1.2482829838        0.6582307409       -0.0495883890
 C          2.1159617790        1.7553624939        0.1331322707
 C          3.4577231358        1.5569333330        0.2976334464
 C          3.9797125043        0.2563798188        0.2926028551
 C          3.1592566348       -0.8237910825        0.1095399798
 C          1.7724401412       -0.6616518892       -0.0829871485
 H          1.1604388672       -5.1856825530       -0.0575406274
 H         -0.1683126882       -4.1212189970        0.6112436498
 H          2.3290747815       -3.2435390167       -0.9170757998
 H         -1.1389062227       -2.3378155557       -0.5836603312
 H         -2.9691072901       -0.7453865480       -1.1418083125
 H          1.6956756226        2.7495279109        0.1489814163
 H          4.1197167236        2.3977378919        0.4397228573
 H          5.0397912446        0.1100708491        0.4383720862
 H          3.5777631114       -1.8179304974        0.1253163667
  26
        -48.71380943
 C          0.8674374395       -4.1758790512       -0.6041492932
 C          1.3513435026       -3.1526041332        0.0858171480
 C          0.8643949002       -1.7765547699       -0.0249848899
 C         -0.4793062765       -1.5409676741       -0.1862766359
 C         -1.0221152979       -0.2422042682       -0.2550624831
 C         -2.4661364242       -0.0919239294       -0.4097397518
 C         -3.2191010728        0.8483001019        0.1390119707
 F         -2.8398466602        1.8046142015        0.9683042607
 F         -4.5361568376        0.9204640235       -0.0418502442
 C         -0.1490705834        0.8196278632       -0.1876057274
 F         -0.6116498787        2.0791182158       -0.3201686996
 C          1.2424870008        0.6475395150       -0.0333522039
 C          2.1158941177        1.7537634238        0.0257486492
 C          3.4625178550        1.5663722526        0.1603608910
 C          3.9856770393        0.2682291578        0.2313052643
 C          3.1588347447       -0.8210592612        0.1755363072
 C          1.7625468887       -0.6715897621        0.0538765344
 H          1.2467498407       -5.1748424136       -0.4748153008
 H          0.0894626767       -4.0523552533       -1.3388438273
 H          2.1540416991       -3.3177655232        0.7917521751
 H         -1.1619419126       -2.3761642225       -0.2270202776
 H         -2.9777520159       -0.8342912974       -1.0035341984
 H          1.6972335647        2.7466646728       -0.0383396457
 H          4.1289818798        2.4143251782        0.2069146727
 H          5.0527077759        0.1311472418        0.3264228004
 H          3.5829566786       -1.8121234661        0.2144973716
  26
        -48.71277881
 C          2.0979771780       -3.7707186564       -0.7052157835
 C          1.1220953053       -3.2494465555        0.0241597962
 C          0.7135654804       -1.8414313176        0.0027375103
 C         -0.6274362521       -1.5611475793       -0.0990892987
 C         -1.1249218890       -0.2472745848       -0.2097371738
 C         -2.5662018708       -0.0476804410       -0.3261769619
 C         -3.2601324664        0.9564749989        0.1859397332
 F         -2.8116301753        1.9460599422        0.9382721361
 F         -4.5788754773        1.0735496020        0.0463643858
 C         -0.2087970176        0.7797808390       -0.2392190242
 F         -0.6250849224        2.0448788798       -0.4503131869
 C          1.1767133439        0.5631663990       -0.0897549931
 C          2.0901026965        1.6383848426       -0.0738211108
 C          3.4232992066        1.4114805337        0.1197827768
 C          3.8894677752        0.1058021802        0.3268390085
 C          3.0259887884       -0.9555032192        0.2993061964
 C          1.6495501258       -0.7685446124        0.0604166013
 H          2.3248733638       -4.8228414417       -0.6726135637
 H          2.6885716206       -3.1736311033       -1.3798782061
 H          0.5127948418       -3.8945265904        0.6453775177
 H         -1.3384596091       -2.3744215812       -0.1154272768
 H         -3.1279967050       -0.8037123309       -0.8536444747
 H          1.7104355562        2.6405352750       -0.2033272842
 H          4.1199528826        2.2360491317        0.1338008569
 H          4.9400602293       -0.0582431470        0.5159388911
 H          3.3922473853       -1.9532339812        0.4838626279
  26
        -48.71263313
 C          1.8963371423       -3.8305292936       -0.3604455240
 C          1.1370264023       -3.1892695957        0.5157527993
 C          0.7438493669       -1.7796717735        0.4168269843
 C         -0.5819578744       -1.4678207236        0.5952963103
 C         -1.0862429026       -0.1625382300        0.4280686270
 C         -2.5170061542        0.0664321265        0.6068854265
 C         -3.2698798765        0.9030108658       -0.0897212516
 F         -2.9053259338        1.6588123663       -1.1104341545
 F         -4.5747027819        1.0562982225        0.1263293828
 C         -0.1874802416        0.8327511425        0.1182609840
 F         -0.6111260132        2.1077415217        0.0034298837
 C          1.1940914326        0.5881852155       -0.0256678403
 C          2.0980841454        1.6336941762       -0.3095009101
 C          3.4371496617        1.3830247742       -0.4107231165
 C          3.9245617104        0.0844872433       -0.2075268320
 C          3.0675149651       -0.9482721274        0.0596924589
 C          1.6752965044       -0.7395410649        0.1327266656
 H          2.1180819848       -4.8787542141       -0.2529436263
 H          2.3028970047       -3.3411693190       -1.2297804358
 H          0.6983100397       -3.7311097076        1.3447789175
 H         -1.2834770106       -2.2548283572        0.8316918360
 H         -3.0193593655       -0.5231345296        1.3589784180
 H          1.7089168060        2.6323257807       -0.4379739938
 H          4.1265981599        2.1844158767       -0.6295186246
 H          4.9882466761       -0.0961256680       -0.2562274492
 H          3.4565391849       -1.9381420705        0.2393323344
