25
 energy: -37.887193200329 gnorm: 0.000025814012 xtb: 6.4.1 (23d549d)
C         3.91461126680000   -0.91856685750000   -0.43692008350000
C         3.08932678180000   -0.09639320730000    0.19597479580000
C         1.62871826590000   -0.15212301970000    0.11145343350000
C         1.00506462600000   -1.38665155460000    0.03363282130000
C        -0.38037206880000   -1.43783763130000   -0.00009521530000
N        -1.23138530150000   -2.51719759890000   -0.03185511530000
C        -2.42244731000000   -2.01600187870000   -0.00014316590000
N        -2.44080174910000   -0.64970252510000    0.04393023260000
C        -1.13211975600000   -0.24335569250000    0.04257032630000
C        -0.53925979420000    1.01737458840000    0.11786263200000
C        -1.34169767530000    2.23433344050000    0.19959828410000
C        -2.47555350730000    2.45116577310000   -0.45591469950000
C         0.86522218930000    1.04684865610000    0.14162329320000
N         1.51308109650000    2.26017887020000    0.06244136740000
H         4.98244516450000   -0.85561408450000   -0.31388058100000
H         3.55340902050000   -1.67629090640000   -1.11087251120000
H         3.50914885320000    0.66262838930000    0.84838957600000
H         1.58322332910000   -2.29562109470000    0.03219338240000
H        -3.32445845290000   -2.59722096890000   -0.01174170010000
H        -3.24710496960000   -0.05345786110000    0.11911870080000
H        -0.97490663520000    3.00524083970000    0.87048353450000
H        -2.86433805080000    1.74874742610000   -1.17441934230000
H        -3.03645499930000    3.36165503170000   -0.33000692630000
H         0.98467443220000    3.07769464760000    0.31621763010000
H         2.48522720280000    2.27882601110000    0.31907307640000
