27
 energy: -43.599832656448 gnorm: 0.000181504791 xtb: 6.4.1 (23d549d)
C        -4.43666567950000    0.82285358040000   -0.62493365120000
C        -3.62574555570000   -0.17723664590000   -0.29950382470000
C        -2.18791759450000   -0.08563659920000   -0.07337936910000
C        -1.37751391570000   -1.16260727270000   -0.39708970050000
C         0.01013228990000   -1.11468118910000   -0.24264930040000
C         0.81953052760000   -2.28880048690000   -0.54171017660000
C         1.93539712730000   -2.62930464700000    0.08902617390000
C         0.53525080330000    0.09555412250000    0.22417000370000
C         2.00942944020000    0.34563746710000    0.31225285680000
O         2.61061774620000    0.63979288910000    1.31087791340000
O         2.57211073070000    0.23253263070000   -0.89805585760000
C         3.97600946620000    0.43790385340000   -0.96448451370000
N        -0.22062135440000    1.11345773390000    0.60031101590000
C        -1.54200097410000    1.04420550590000    0.48860329820000
N        -2.22072151620000    2.14637290830000    0.91906604540000
H        -5.48652669270000    0.65452683620000   -0.79634088280000
H        -4.08189218960000    1.82755717240000   -0.77840466620000
H        -4.02643929570000   -1.18197496950000   -0.22917848070000
H        -1.83144194750000   -2.06336858530000   -0.78842897930000
H         0.42046471960000   -2.93362756410000   -1.31546112660000
H         2.33725062480000   -2.04422993790000    0.89925457010000
H         2.47975536900000   -3.52090165920000   -0.17238751470000
H         4.49859734020000   -0.46934527990000   -0.65258997230000
H         4.26852098550000    1.26130559230000   -0.30984408870000
H         4.20714724280000    0.66737234170000   -2.00177129180000
H        -1.66298103750000    2.78436675840000    1.46476561450000
H        -3.17973758100000    2.02300844550000    1.20022136520000
