  24
        -45.67001374
 C         -5.6120940766       -1.6254025779        0.1357872910
 C         -5.3701147103       -0.3207209505        0.0365647375
 C         -4.0639731006        0.2732696437       -0.0100809756
 C         -3.7654135844        1.6113369522       -0.1105380803
 C         -2.3940823344        1.8822279838       -0.1331338812
 C         -1.6166762391        0.7485653107       -0.0499922389
 C         -0.1938504536        0.6602917789       -0.0466278901
 C          0.7189856452        1.6899902373       -0.1245557196
 C          2.0485354820        1.2612404978       -0.0967190471
 C          2.1772954907       -0.1042016412        0.0029816409
 C          3.3517500307       -0.9244292521        0.0593518425
 C          4.6098355188       -0.4975756111        0.0227271121
 F          5.0209625633        0.7625026096       -0.0723641939
 F          5.6649131821       -1.3054213414        0.0784395323
 S          0.6174014381       -0.8708058794        0.0636051199
 S         -2.6091638409       -0.6750698936        0.0581613860
 H         -6.6141711651       -2.0141874395        0.1665218789
 H         -4.8092259078       -2.3423414210        0.1890950985
 H         -6.1883680924        0.3864852398       -0.0160246361
 H         -4.5227421662        2.3734396823       -0.1661599411
 H         -1.9839218817        2.8727739919       -0.2079015504
 H          0.4317424838        2.7226496259       -0.1994353251
 H          2.8875990554        1.9303359606       -0.1480273153
 H          3.2082519515       -1.9912098714        0.1388751449
