  34
        -48.19914005
 C          5.8249520897       -1.1000832920        0.4265770789
 C          5.0060796808       -0.2145270373       -0.1284405161
 C          3.5498867403       -0.2178451159       -0.0745413928
 C          2.8107160181       -1.2395073295        0.5248484232
 C          1.4328926191       -1.1808560779        0.5404272017
 C          0.7377918114       -0.1134489860       -0.0176893803
 C         -0.7378020376       -0.1132847545        0.0170902596
 C         -1.4331508973       -1.1800756924       -0.5419026736
 C         -2.8109873387       -1.2383927869       -0.5264434820
 C         -3.5499530959       -0.2169776644        0.0736333022
 C         -5.0061414261       -0.2132315686        0.1274472941
 C         -5.8251924634       -1.1019170399       -0.4222962414
 C         -2.8577456952        0.8407688842        0.6560259886
 C         -1.4678310581        0.9141623770        0.6402410838
 N         -0.8291151658        2.0054223344        1.1924349646
 C          1.4680367290        0.9142356477       -0.6402063775
 N          0.8295778138        2.0060617749       -1.1915354086
 C          2.8579271593        0.8403965344       -0.6563152971
 H          6.8937994251       -1.0106422627        0.3322015023
 H          5.4725481234       -1.9432428868        0.9953366029
 H          5.4325050491        0.6144143825       -0.6816458584
 H          3.3107618712       -2.0825022287        0.9737240187
 H          0.8666845825       -1.9746049195        1.0074325563
 H         -0.8671239414       -1.9735307167       -1.0096320468
 H         -3.3111903301       -2.0807348020       -0.9763604818
 H         -5.4324429827        0.6186302848        0.6762960958
 H         -5.4730155525       -1.9486173224       -0.9858764327
 H         -6.8940038743       -1.0119447060       -0.3280399330
 H         -3.4098446114        1.6347497345        1.1417798065
 H         -1.3504947744        2.5271355911        1.8773902074
 H          0.1500642646        1.8912991634        1.3976267667
 H         -0.1496878047        1.8924658742       -1.3965845128
 H          1.3510164977        2.5281787714       -1.8761318650
 H          3.4102053251        1.6345316880       -1.1416091679
  34
        -48.19910672
 C          5.8674060614       -0.9294968861        0.5051484832
 C          5.0202147333       -0.0692622702       -0.0472324754
 C          3.5650003111       -0.1432198737       -0.0307633826
 C          2.8609570615       -1.2044537275        0.5416109163
 C          1.4819838672       -1.2123802341        0.5216420030
 C          0.7505017156       -0.1750942046       -0.0467651774
 C         -0.7236939104       -0.2471656404       -0.0519456902
 C         -1.3504270062       -1.3429210054       -0.6338369314
 C         -2.7245819943       -1.4625953506       -0.6507487098
 C         -3.5283680663       -0.4785478427       -0.0707510884
 C         -4.9765193319       -0.6359779639       -0.1135207973
 C         -5.8871923467        0.2555097816        0.2588878490
 C         -2.9050790947        0.6072954078        0.5352272125
 C         -1.5199494517        0.7399410971        0.5570882490
 N         -0.9463288283        1.8539792189        1.1353649552
 C          1.4459183906        0.8922130369       -0.6420110226
 N          0.7700844837        1.9566710980       -1.2018371897
 C          2.8377315124        0.8858007187       -0.6217731664
 H          6.9326336001       -0.7866948561        0.4399198993
 H          5.5428038201       -1.8038552208        1.0424424413
 H          5.4194040481        0.7928482430       -0.5691412588
 H          3.3893983010       -2.0257361814        0.9981138398
 H          0.9431164480       -2.0363546812        0.9682036305
 H         -0.7365012431       -2.1064948846       -1.0904908047
 H         -3.1839400354       -2.3210241895       -1.1187878374
 H         -5.3101632257       -1.5887165079       -0.5076906586
 H         -5.6290020239        1.2265949822        0.6453429335
 H         -6.9404966159        0.0450948983        0.1845454187
 H         -3.4969440356        1.3707539888        1.0181564985
 H         -1.5099942918        2.3457141069        1.8089539722
 H          0.0304765453        1.7811828307        1.3688325030
 H         -0.1971468271        1.7988013719       -1.4328410112
 H          1.2833873620        2.5100218378       -1.8677554557
 H          3.3631758553        1.7100059406       -1.0862676783
  34
        -48.19907133
 C          5.8772181624        0.4394626080       -0.1705633238
 C          5.0016452098       -0.4921214243        0.1876758334
 C          3.5490274945       -0.4053518869        0.1098146964
 C          2.7805630169       -1.4310166663        0.6651252903
 C          1.4030026761       -1.3791972603        0.6139659338
 C          0.7376622058       -0.3121255624        0.0218273577
 C         -0.7376943242       -0.3122326151       -0.0211073100
 C         -1.4028764189       -1.3793353354       -0.6133786510
 C         -2.7804302232       -1.4314321424       -0.6644035962
 C         -3.5490113933       -0.4058606714       -0.1090999268
 C         -5.0016449874       -0.4925243955       -0.1871477769
 C         -5.8767599119        0.4420130971        0.1643928871
 C         -2.8882963054        0.6517217341        0.5071214480
 C         -1.4992748177        0.7165472636        0.5629307625
 N         -0.8861694244        1.8044230444        1.1497962462
 C          1.4991026275        0.7169168941       -0.5619390486
 N          0.8858113889        1.8048440482       -1.1485114284
 C          2.8881268235        0.6522706280       -0.5061641981
 H          6.9373107065        0.2802188993       -0.0700795245
 H          5.5823978149        1.3943831603       -0.5707662916
 H          5.3713390325       -1.4253637306        0.5960135878
 H          3.2699034775       -2.2684749915        1.1407119183
 H          0.8163923149       -2.1747344070        1.0515818073
 H         -0.8161372934       -2.1747721222       -1.0510030414
 H         -3.2696827982       -2.2689558469       -1.1399615333
 H         -5.3715986296       -1.4279955158       -0.5901594261
 H         -5.5813860267        1.3993374600        0.5584669064
 H         -6.9369153172        0.2828489784        0.0644268207
 H         -3.4536226335        1.4463463319        0.9711648166
 H         -1.4411299503        2.3284502918        1.8059466058
 H          0.0803759203        1.6867934941        1.4063022079
 H         -0.0806398395        1.6870530712       -1.4052700988
 H          1.4408100751        2.3293775763       -1.8042210962
 H          3.4532706390        1.4473192379       -0.9696921498
  34
        -48.19849656
 C          5.8686964711       -0.6562076908       -0.1667760981
 C          4.9979677494        0.3451798191       -0.2110651094
 C          3.5447500561        0.2470742690       -0.1688911797
 C          2.7850552882        1.4084674809       -0.3244157046
 C          1.4068074907        1.3545748483       -0.2876157271
 C          0.7314907872        0.1531400847       -0.1004960344
 C         -0.7426539438        0.1245005505       -0.0717459869
 C         -1.4457833960       -0.6987671577       -0.9461476935
 C         -2.8244267945       -0.7452470858       -0.9511488622
 C         -3.5571572264        0.0394208241       -0.0588771063
 C         -5.0131675029        0.0348771532       -0.0029484168
 C         -5.8359764817       -0.7021762827       -0.7396053325
 C         -2.8579857197        0.8608253615        0.8210771951
 C         -1.4680308586        0.9246402306        0.8295281536
 N         -0.8264301872        1.7937630867        1.6891660006
 C          1.4846604710       -1.0253008291        0.0583302012
 N          0.8650578521       -2.2503115167        0.2067727109
 C          2.8736724731       -0.9557446784        0.0274960268
 H          6.9297210617       -0.4779899371       -0.2079611371
 H          5.5692234423       -1.6876296747       -0.0936432835
 H          5.3734427991        1.3582435464       -0.2959913495
 H          3.2812377389        2.3555092830       -0.4793462658
 H          0.8282900257        2.2570071522       -0.4232556206
 H         -0.8861292537       -1.3000517723       -1.6482184365
 H         -3.3297738986       -1.3899168696       -1.6520397071
 H         -5.4358851887        0.7147992542        0.7277729857
 H         -5.4876238023       -1.3984781852       -1.4828094644
 H         -6.9042874727       -0.6336700916       -0.6241450244
 H         -3.4061134138        1.4743736551        1.5241946361
 H         -1.3550846602        2.0952460565        2.4912551021
 H          0.1487222430        1.6086456887        1.8638031571
 H         -0.0971801958       -2.2298679702        0.5056300674
 H          1.4234956720       -2.9834800601        0.6121265334
 H          3.4317830017       -1.8702385382        0.1638776016
  34
        -48.19844179
 C          5.8987181424       -0.1878332852       -0.4728979474
 C          4.9930421983        0.2302638971        0.4034459324
 C          3.5442308245        0.1996461904        0.2511316689
 C          2.7482872587        0.7577632990        1.2537450335
 C          1.3727708480        0.7422624128        1.1467253468
 C          0.7360631797        0.1805514444        0.0450380530
 C         -0.7359276263        0.1810557488       -0.0445152719
 C         -1.3722778873        0.7432995018       -1.1461356580
 C         -2.7477939737        0.7599629026       -1.2530029066
 C         -3.5441170705        0.2020445716       -0.2505695197
 C         -4.9928844689        0.2334324141       -0.4030943073
 C         -5.8988194844       -0.1939508853        0.4684910585
 C         -2.9116822018       -0.3678155698        0.8498611603
 C         -1.5262638602       -0.3829306062        0.9745707844
 N         -0.9484689336       -0.9161977489        2.1096922356
 C          1.5260204728       -0.3840998848       -0.9739733179
 N          0.9478533421       -0.9172634602       -2.1089697295
 C          2.9114519063       -0.3698501179       -0.8492790795
 H          6.9528184168       -0.1190042409       -0.2646492571
 H          5.6364064614       -0.6084944599       -1.4284485689
 H          5.3329230938        0.6515252611        1.3423528548
 H          3.2143093814        1.2081833387        2.1180555928
 H          0.7667147469        1.1885397456        1.9219472679
 H         -0.7659363765        1.1891755538       -1.9213677187
 H         -3.2135104206        1.2107882584       -2.1172696430
 H         -5.3325329421        0.6630704181       -1.3382867392
 H         -5.6369008190       -0.6242784440        1.4198361573
 H         -6.9528356689       -0.1238171865        0.2602443955
 H         -3.4979312097       -0.8165062905        1.6381094017
 H         -1.5176517727       -1.5577358018        2.6371513849
 H          0.0251263188       -1.1666830264        2.0385157290
 H         -0.0260017310       -1.1667150268       -2.0376895794
 H          1.5163675992       -1.5598642278       -2.6358810069
 H          3.4974386861       -0.8194837094       -1.6371913896
