  31
        -45.39460986
 C         -2.5328313252        3.6814332631        0.1549000348
 C         -1.4695318398        2.8873564818        0.1660846560
 C         -1.4698529227        1.4277572116        0.1590808414
 C         -2.6229476433        0.6752597380       -0.0440034635
 C         -2.5903694469       -0.7164209485       -0.0256368081
 C         -3.7805736751       -1.5365502678       -0.2293339996
 C         -4.9685012311       -1.1187447806       -0.6480082462
 C         -1.3722098412       -1.3572084143        0.1936801540
 C         -0.2102190264       -0.6200496424        0.3767481820
 O          0.9377045763       -1.3217565939        0.6435073915
 C          2.1510604620       -0.8497686034        0.2175470886
 C          3.2609953007       -1.1676167432        0.9944825390
 C          4.5222831504       -0.7769053357        0.5877830059
 C          4.6888941440       -0.0675364180       -0.5901506464
 C          3.5851699805        0.2372845421       -1.3681632082
 C          2.3181505470       -0.1524963259       -0.9744837344
 C         -0.2592864660        0.7668985997        0.3669203582
 H         -2.4302459152        4.7529970787        0.1655242323
 H         -3.5417324577        3.3064633146        0.1424423149
 H         -0.4832584740        3.3348027619        0.1962612726
 H         -3.5596450354        1.1795805674       -0.2114269921
 H         -3.6388046494       -2.5901563033       -0.0220504945
 H         -5.1733109808       -0.0901427447       -0.8907119244
 H         -5.7899555017       -1.8031498847       -0.7732069937
 H         -1.3121380799       -2.4346251598        0.2188664612
 H          3.1137652640       -1.7220931767        1.9082289774
 H          5.3790893517       -1.0245973888        1.1965875974
 H          5.6745978433        0.2414195697       -0.9033366811
 H          3.7081933940        0.7787862912       -2.2945627719
 H          1.4599323387        0.0728366989       -1.5911041076
 H          0.6432944946        1.3362696400        0.5390078931
