  34
        -46.60808751
 C          7.0841288943       -0.6185038018        0.0694837552
 C          6.1483963679        0.3219099475       -0.0031256027
 C          4.7074667855        0.1205456453       -0.0076527061
 C          3.8664192505        1.2352270525       -0.0748788269
 C          2.4959158032        1.1048628902       -0.0797829214
 C          1.8937448671       -0.1559152792       -0.0182724092
 C          0.4613773042       -0.3639617588       -0.0171756358
 C         -0.4842946986        0.5893935632       -0.0143715995
 C         -1.9167115542        0.3817959696       -0.0077226474
 C         -2.5194533517       -0.8794821562       -0.0714734757
 C         -3.8888192183       -1.0178708651       -0.0593002664
 C         -4.7293647112        0.0959623254        0.0174007679
 C         -6.1811360103        0.0020179175        0.0353319195
 C         -6.9090164270       -1.1084289049       -0.0129492570
 C         -4.1297036022        1.3566340758        0.0782249350
 C         -2.7601873630        1.4961298629        0.0645987586
 C          2.7380185049       -1.2712453858        0.0439013990
 C          4.1080950274       -1.1398324949        0.0506753219
 H          8.1308449238       -0.3668388193        0.0674970621
 H          6.8537876868       -1.6680836194        0.1347672313
 H          6.4558448552        1.3593513686       -0.0650784081
 H          4.3056577990        2.2222907351       -0.1240504045
 H          1.8853684680        1.9930120556       -0.1359753961
 H          0.1642230239       -1.4046067738       -0.0092558848
 H         -0.1869589652        1.6300284916       -0.0075563603
 H         -1.9063849585       -1.7654610892       -0.1353885358
 H         -4.3154584043       -2.0078682319       -0.1108315107
 H         -6.6905655256        0.9567047644        0.0956485196
 H         -6.4729907162       -2.0907284937       -0.0728499995
 H         -7.9847716562       -1.0728665583        0.0066929115
 H         -4.7553341337        2.2367405523        0.1366975610
 H         -2.3245212265        2.4846877790        0.1129783840
 H          2.2995923020       -2.2587955927        0.0904402640
 H          4.7218986383       -2.0260216360        0.1007370983
