  20
        -35.48960738
 C         -3.2234084988        1.5431748706       -0.5108068194
 C         -2.1289628434        1.6565110779        0.2276758828
 C         -0.9727090008        0.7774608019        0.1572608567
 C          0.3611265252        1.2459308871        0.2288512675
 C          1.1765034442        0.1608580684        0.0396823066
 C          2.6412220011        0.0572197907        0.0049694550
 O          3.3725011072        0.9982067395        0.1535820087
 O          3.1117105743       -1.1852750156       -0.2079252625
 O          0.4228514907       -0.9550964066       -0.1313561751
 C         -0.8800915134       -0.5931926329       -0.0509908660
 C         -1.8278850128       -1.6794072936       -0.1200944815
 C         -3.0912104127       -1.6504995214        0.2916549733
 H         -4.0244672376        2.2584274836       -0.4401758901
 H         -3.3518945615        0.7420184015       -1.2189187917
 H         -2.0078940796        2.4996092412        0.8959166959
 H          0.6848913078        2.2546153378        0.3824943408
 H          2.3907197220       -1.8245658465       -0.3036275820
 H         -1.4009670334       -2.5980345113       -0.5031217615
 H         -3.5352942006       -0.7663180824        0.7129503741
 H         -3.7134064594       -2.5254916555        0.2261428132
