  20
        -32.77505312
 C         -3.1639501400        1.3400104100       -0.1699114291
 C         -1.9605475713        0.4579266664       -0.0675702409
 C         -0.6715272045        0.9834259288       -0.0946162330
 C          0.4207631648        0.1248275204       -0.0131503802
 C          1.8092592037        0.6790893042       -0.0770130328
 O          2.7160392297        0.1574446900       -0.6611904737
 O          1.9904189436        1.8455192888        0.5726812327
 C          0.1941260538       -1.2542204819        0.0917986989
 C          1.3047080864       -2.2464803750        0.1735564731
 C         -1.1373288884       -1.6586901000        0.1291564326
 N         -2.1718112485       -0.8442803739        0.0529025999
 H         -3.1646735914        2.0814422588        0.6274177707
 H         -4.0615495004        0.7339161042       -0.0973223624
 H         -3.1646436038        1.8675810852       -1.1223641257
 H         -0.5359409475        2.0501754902       -0.2177212315
 H          1.1878830836        2.1481538585        1.0190077093
 H          1.8845344635       -2.2311716004       -0.7474350836
 H          0.9105945940       -3.2470238225        0.3325907714
 H          1.9870921575       -1.9980078319        0.9847302011
 H         -1.3845817708       -2.7087575984        0.2215980733
