  39
        -45.47815666
 C         -3.3828631104       -1.8189299550        0.6127304399
 C         -2.5786166243       -1.2086922446       -0.5288954675
 C         -3.1956473739        0.0745563055       -1.0866047528
 C         -3.3441199904        1.2168202832       -0.0783520418
 C         -2.0498748528        1.6332851473        0.6219766591
 C         -0.9608367636        2.0831826210       -0.3485131478
 C          0.2303410170        2.7441435614        0.3450000687
 C          0.9897212307        1.8110907301        1.2993571535
 C          1.3650591202        0.5052397566        0.6665295921
 C          0.7808562585       -0.7329751418        1.0518668971
 C          1.2242701549       -1.8021250124        0.3457049789
 C          0.8198451346       -3.2281963319        0.4647669723
 S          2.4020280272       -1.3092645022       -0.8315221462
 C          2.2735167855        0.3544348166       -0.3373241372
 C          3.1073717577        1.3854511169       -1.0138602478
 H         -2.9563995733       -2.7765617269        0.9044357154
 H         -4.4146909537       -1.9826922889        0.3082498707
 H         -3.3817389717       -1.1688168048        1.4838904075
 H         -2.5168457806       -1.9351288655       -1.3435900781
 H         -1.5595719266       -1.0133147227       -0.1931700827
 H         -4.1888667313       -0.1568345419       -1.4814391796
 H         -2.5853772654        0.4151364057       -1.9255712217
 H         -4.0748065892        0.9320325007        0.6817198188
 H         -3.7513466224        2.0821757157       -0.6086840783
 H         -1.6827221624        0.8040028829        1.2250173748
 H         -2.2811807332        2.4585528424        1.3016432835
 H         -1.3898744351        2.8005955212       -1.0532637989
 H         -0.6023067560        1.2270485756       -0.9218890623
 H         -0.1148641162        3.6122059725        0.9123595879
 H          0.9181390832        3.1037203514       -0.4224287483
 H          0.3742041425        1.6093143712        2.1769337709
 H          1.8921507696        2.3273593753        1.6405194539
 H          0.0603676775       -0.8190025846        1.8474504503
 H          0.1228794360       -3.3466222562        1.2912783591
 H          1.6876342793       -3.8632540960        0.6404302786
 H          0.3366035930       -3.5685277526       -0.4513922070
 H          4.0415682128        0.9485502289       -1.3610435710
 H          3.3323195234        2.1995196941       -0.3270426937
 H          2.5885201998        1.7999964719       -1.8798792759
