  24
        -42.11506028
 C         -3.9375517311       -0.9089715785        0.1149486287
 C         -3.0849612047        0.1020421700       -0.0002886049
 C         -1.6311380071        0.0093731801        0.0058042395
 C         -0.9235797859       -1.1901320588        0.0486997380
 C          0.4601958931       -1.2506195886        0.0559123720
 C          1.1759283440       -2.5225086883        0.1101728793
 C          0.6862033348       -3.7046079454       -0.2409748139
 C          1.2195980184       -0.0554393090        0.0327189435
 O          2.5627825255       -0.2055499660        0.0458177091
 C          3.4177659974        0.9193054657        0.0513021504
 C          0.5205029315        1.1493539671       -0.0159840343
 F          1.1556276074        2.3469719752       -0.0504007193
 C         -0.8674319754        1.1745051379       -0.0320561468
 F         -1.4706853523        2.3774505465       -0.0776395729
 H         -5.0002764916       -0.7416590586        0.1008421151
 H         -3.6220803519       -1.9314034388        0.2312352143
 H         -3.4704816147        1.1075892545       -0.1042274884
 H         -1.4744963613       -2.1141328422        0.0901995032
 H          2.1987238000       -2.4473517432        0.4505841354
 H         -0.3109885935       -3.8314602422       -0.6268618889
 H          1.2815130863       -4.5980281966       -0.1679101611
 H          4.4258616017        0.5086061850        0.0861051499
 H          3.2531948814        1.5493085293        0.9285708179
 H          3.3032523794        1.5189234133       -0.8545877953
