  35
        -52.81933402
 C          5.9271407640       -0.7191076244        0.0040202904
 C          4.6759009141        0.1039810770        0.0027686956
 C          4.7316118726        1.4977465976        0.0027732836
 C          3.5457804461        2.2108395839        0.0013271198
 C          2.3475670083        1.5186934071       -0.0000879900
 C          2.3849710528        0.1255387135       -0.0001268338
 C          1.1444632345       -0.6635257822       -0.0017483406
 C          1.1918751098       -2.0593428921       -0.0030029757
 C         -0.0000247865       -2.7616857106       -0.0044078118
 C         -1.1919020257       -2.0593147167       -0.0042722356
 C         -1.1444534719       -0.6634934315       -0.0028231898
 C         -2.3849589765        0.1255764373       -0.0022004571
 C         -2.3475880836        1.5187269631       -0.0066194865
 C         -3.5458190603        2.2108422441       -0.0053553988
 C         -4.7316352270        1.4977343689        0.0002916694
 C         -4.6758897313        0.1039800753        0.0043234834
 C         -5.9270807170       -0.7191602669        0.0104535491
 N         -3.5301926187       -0.5545659447        0.0029895134
 N          0.0000091668        0.0105897141       -0.0017782385
 N          3.5302235320       -0.5545952121        0.0013075380
 H          6.5237740830       -0.5005486415       -0.8801560928
 H          5.6701115789       -1.7740035885        0.0101297507
 H          6.5287282391       -0.4910329553        0.8823483277
 H          5.6863507874        2.0019912290        0.0040018739
 H          3.5561317069        3.2918570557        0.0014420262
 H          1.3947790807        2.0207813049       -0.0011071427
 H          2.1512883508       -2.5496878039       -0.0027855771
 H         -0.0000359894       -3.8427473081       -0.0055431157
 H         -2.1513339978       -2.5496199197       -0.0052592873
 H         -1.3948197644        2.0208371407       -0.0109081591
 H         -3.5562087176        3.2918547131       -0.0086390294
 H         -5.6863782344        2.0019734541        0.0016754763
 H         -6.5272241427       -0.5007860160       -0.8713546751
 H         -6.5252261280       -0.4910015255        0.8911231646
 H         -5.6699971772       -1.7740344319        0.0158786130
