  19
        -26.74340527
 C          3.4013362966        0.0672959538        0.0087745629
 C          1.9132777492       -0.0921058645       -0.0075202914
 C          1.3302777704       -1.3543016220       -0.0048360534
 C         -0.0428435298       -1.4921238928       -0.0011488767
 C         -0.8564290014       -0.3600981416        0.0002166722
 C         -2.2598993154       -0.5153130359        0.0020684074
 N         -3.3995341340       -0.6472622156        0.0037985595
 C         -0.2904029494        0.9235089946       -0.0014759048
 C         -1.1705627075        2.1334034274        0.0001646284
 C          1.0895187087        1.0289339379       -0.0053513107
 H          3.8946400433       -0.8387238341       -0.3341032884
 H          3.7401950472        0.2755703712        1.0242195735
 H          3.7082562414        0.8990523242       -0.6218043740
 H          1.9565420765       -2.2342890477       -0.0070957242
 H         -0.4977917455       -2.4719050679       -0.0009216215
 H         -1.8257603919        2.1282074080       -0.8707679820
 H         -0.5781765976        3.0449777529       -0.0107988587
 H         -1.8076659598        2.1381951037        0.8845226335
 H          1.5404503392        2.0116676404       -0.0074979038
