  25
        -44.38998124
 C          0.9701266197       -3.8519433636       -0.1511908715
 C          1.5045829224       -2.6449366046       -0.0062332022
 C          0.7953665999       -1.3730429685       -0.0160659998
 C         -0.5874548229       -1.2626668999       -0.0047282211
 C         -1.2459733558       -0.0346384970       -0.0221082509
 C         -2.7207342173        0.0414950666        0.0314250125
 O         -3.3609151717        1.0306234268       -0.2520409412
 O         -3.3814793689       -1.0540433946        0.4413678701
 C         -0.4858418112        1.1622767926       -0.0932015530
 N         -1.0910274824        2.3618481810       -0.1214463710
 C          0.9303788308        1.0785327691       -0.0879696779
 C          1.7379114112        2.2996855852       -0.1910657961
 C          2.8432972169        2.5424071895        0.4972786453
 C          1.5188309225       -0.1709241653       -0.0359864767
 F          2.8651979709       -0.2507580706       -0.0603184331
 H          1.5840267199       -4.7350149862       -0.1286361828
 H         -0.0823292261       -4.0187684723       -0.3066552724
 H          2.5751178361       -2.5605467697        0.1240375393
 H         -1.1536959231       -2.1830360394       -0.0132572042
 H         -2.7896536202       -1.7654312343        0.7184353836
 H         -2.1001540379        2.3806683962       -0.1873493537
 H         -0.5520751333        3.2071437377       -0.1104829416
 H          1.3802506606        3.0312939005       -0.9070609339
 H          3.2297861315        1.8497786315        1.2247719463
 H          3.4033545647        3.4509433994        0.3570416905
