  26
        -41.83176399
 C          4.0094363935        2.3772566507       -0.1681638360
 C          3.6073598359        1.1175986328       -0.0287086072
 C          2.2329181052        0.6883518851       -0.0403380233
 C          1.0482330255        1.3655423509       -0.1828220388
 C          0.0173991558        0.3969138635       -0.1102188432
 C         -1.4048926164        0.7332107130       -0.2194403639
 O         -1.8154920769        1.8615452003       -0.3490031908
 O         -2.2031366137       -0.3443028611       -0.1582927329
 C         -3.6118695870       -0.1223048627       -0.2324760607
 C         -4.3184342536       -1.1314724126        0.6559261547
 C          0.6513486945       -0.8272731142        0.0755841836
 C          0.1210215077       -2.1562415270        0.2226015173
 C          0.8801540549       -3.2370791855        0.3935904236
 O          1.9813181054       -0.6353706373        0.1152000767
 H          5.0529199898        2.6366572745       -0.1512700994
 H          3.3108924235        3.1842342621       -0.3027947214
 H          4.3236922766        0.3183934522        0.1061711817
 H          0.9022968229        2.4158381572       -0.3227082492
 H         -3.9200635884       -0.2388633292       -1.2777535728
 H         -3.8227845999        0.9054887246        0.0816265792
 H         -4.0892545660       -2.1434106173        0.3319922540
 H         -5.3920360748       -0.9764234498        0.5998347464
 H         -3.9967408547       -1.0149436872        1.6877354076
 H         -0.9547965460       -2.2206533193        0.1837817479
 H          1.9541976662       -3.1689383391        0.4308470894
 H          0.4486189759       -4.2163825704        0.5006429469
