22
 energy: -36.893874054030 gnorm: 0.000065191599 xtb: 6.4.1 (23d549d)
C         4.00203843630000    0.69559312640000   -0.30196234660000
C         3.34780995150000   -0.41070645620000    0.03116643940000
C         1.90104385350000   -0.57191571630000    0.09064951380000
C         1.35723068280000   -1.84515031610000    0.28845191890000
C        -0.00622970710000   -2.04704925540000    0.32500582810000
C        -0.90368468420000   -0.98882542070000    0.17905483790000
C        -2.33768293200000   -1.26291656700000    0.10550087810000
C        -3.16089254490000   -0.71802865630000   -0.77833664340000
C        -0.35328318750000    0.29036520280000    0.03774135860000
N        -1.18383973090000    1.47045339180000    0.03430582300000
O        -2.10641165670000    1.51432341290000    0.81763825750000
O        -0.86931994910000    2.36528320160000   -0.72176475750000
C         1.01487195590000    0.49615286760000   -0.02432245060000
H         5.07764102210000    0.72095723610000   -0.32516585540000
H         3.50360404100000    1.61076872300000   -0.57093883240000
H         3.90933108370000   -1.30413105090000    0.27396172870000
H         2.02163716910000   -2.68935210900000    0.40305650350000
H        -0.39799901010000   -3.04563218830000    0.44965162730000
H        -2.69675380670000   -2.01997289220000    0.78976973820000
H        -2.83106412880000    0.00440396630000   -1.50739744920000
H        -4.20268431040000   -0.98305442830000   -0.81353387690000
H         1.37427273930000    1.50716761710000   -0.13734812290000
