  29
        -51.51772613
 C         -1.6493893493        4.6740547643        0.1731714845
 C         -0.5394465943        3.9528486664        0.0772371566
 C         -0.4446641735        2.4964476768        0.0701537466
 C         -1.5587267108        1.6642759799       -0.0103284487
 C         -1.4396176676        0.2744164888       -0.0125776153
 C         -2.6629086399       -0.5102791623       -0.1018415206
 C         -2.7976373391       -1.8278919679       -0.1262115747
 F         -1.8473767940       -2.7510128469       -0.0754573824
 F         -3.9807922448       -2.4327880014       -0.2107294127
 C         -0.1704822889       -0.2979184119        0.0684444828
 C          0.9498741609        0.5201703880        0.1455775237
 C          2.3234033489       -0.0445499736        0.2293873270
 O          3.3233412837        0.6299338553        0.2818720626
 O          2.3234186822       -1.3809904327        0.2519201963
 C          3.5941055487       -2.0276834441        0.3155132657
 C          4.2292223734       -2.1431133359       -1.0628224231
 C          0.8141620509        1.9030706289        0.1425407446
 H         -1.6168751150        5.7498200689        0.1748251223
 H         -2.6284100148        4.2348171056        0.2606999620
 H          0.4140723165        4.4608703530        0.0092234216
 H         -2.5435170062        2.0999116791       -0.0811582910
 H         -3.5888563743        0.0440627448       -0.1560994716
 H         -0.0370622015       -1.3659239871        0.0704395643
 H          3.3881721549       -3.0129943381        0.7387292157
 H          4.2476203277       -1.4604314400        0.9866735673
 H          3.5591363550       -2.6632083692       -1.7432316114
 H          5.1613069921       -2.6958587720       -0.9889864760
 H          4.4374558802       -1.1523012672       -1.4591407794
 H          1.7074545494        2.5071681025        0.2025260898
