  36
        -48.32701134
 C         -5.3068638156        0.2426676764        0.2327706567
 C         -3.8132534809        0.2634467948        0.1046561584
 C         -3.1304934415        1.4126074534       -0.2503200281
 C         -1.7488289931        1.4179349586       -0.3662120640
 C         -1.0218094262        0.2611173565       -0.1282328213
 O          0.3409451567        0.1662789172       -0.2175821298
 C          1.0679188444        1.3312592591       -0.5319328380
 C          2.5921944823        1.0892137356       -0.5589649102
 C          3.0178974790       -0.0859986129       -1.4510113936
 C          2.8217647768       -1.4315375114       -0.7562334395
 C          3.4892009128       -1.3908019305        0.6150269069
 C          2.9276461868       -0.2084286794        1.4005235628
 O          3.1558017173        1.0176555888        0.7322715882
 C         -1.6962385641       -0.9160586786        0.2347303175
 C         -0.9196291712       -2.1714313567        0.4906642829
 C         -3.0730059352       -0.8904810325        0.3430236402
 H         -5.7262111934        1.2279789381        0.0464801055
 H         -5.5990102777       -0.0766080682        1.2323386948
 H         -5.7394910268       -0.4587491974       -0.4799131292
 H         -3.6748176334        2.3262604361       -0.4412445630
 H         -1.2554063004        2.3357551565       -0.6441585746
 H          0.8707365393        2.1137886340        0.2145060337
 H          0.7680291162        1.7037737513       -1.5222278496
 H          3.0170720581        2.0145823086       -0.9720266996
 H          4.0774528050        0.0400951868       -1.6864372049
 H          2.4525555495       -0.0490312743       -2.3829545304
 H          3.2516772674       -2.2276619757       -1.3679491079
 H          1.7574568869       -1.6252014714       -0.6340829260
 H          4.5676148340       -1.2618349455        0.4986240120
 H          3.3062378907       -2.3154109241        1.1639466223
 H          3.4298029320       -0.1000941199        2.3649865473
 H          1.8535364841       -0.3532128865        1.5715292870
 H         -0.4730748870       -2.5327622259       -0.4355718699
 H         -1.5652490007       -2.9485593577        0.8913482251
 H         -0.1120787409       -1.9811481462        1.1955984695
 H         -3.5907222666       -1.7973467916        0.6234995039
