  22
        -29.88223289
 C         -3.7346493251       -0.4082376138       -0.0930796943
 C         -2.8963481815        0.6196047678       -0.0393011286
 C         -1.4470509811        0.4746565861        0.0034171346
 C         -0.6166460991        1.5958801131        0.0638412200
 C          0.7494579338        1.4094764309        0.1195667306
 C          1.2789667259        0.1192577943        0.1044545645
 C          2.7159351659       -0.1190652880        0.1692517204
 C          3.6430543290        0.7111987067       -0.2915315063
 C          0.3606906802       -0.9463437138        0.0321016441
 C          0.8102295667       -2.3752931941       -0.0161407296
 N         -0.9427190385       -0.7589669824       -0.0138415352
 H         -4.8024571262       -0.2754007624       -0.1239090849
 H         -3.3564902986       -1.4156694942       -0.1073498273
 H         -3.2628888614        1.6380449787       -0.0244431749
 H         -1.0408059300        2.5888703881        0.0777516331
 H          1.4118022862        2.2598018431        0.1965855402
 H          3.0186493843       -1.0554466580        0.6187122145
 H          3.3937810714        1.6390187140       -0.7787895443
 H          4.6923712659        0.4826616057       -0.2157574077
 H          1.3038659390       -2.6532175724        0.9144688396
 H          1.5089906802       -2.5321931775       -0.8357146422
 H         -0.0578046761       -3.0128968114       -0.1557877178
