  26
        -36.02663878
 C          3.7775464955        1.5188730860        0.2778593075
 C          2.8953609289        0.7386619354       -0.3318749960
 C          1.4548105412        0.7663861990       -0.0824226973
 C          0.8198048277        1.9678244436        0.1443724039
 C         -0.5631432743        2.0390682148        0.3006381872
 C         -1.3554168166        0.9146505334        0.2191727060
 C         -2.8079795851        1.0929003272        0.2651480379
 C         -3.6765456702        0.5292095042       -0.5628228517
 C         -0.7316057591       -0.3569207893        0.0748486594
 C         -1.4639296110       -1.5607519947        0.1515953840
 C         -0.8505586966       -2.7758695770        0.0288887937
 C          0.5346616625       -2.8467522070       -0.1637942031
 C          1.2798863317       -1.7017844644       -0.2042354370
 C          0.6805202499       -0.4292966639       -0.0871613132
 H          4.8276155057        1.4782183878        0.0432386327
 H          3.4877898538        2.2138935613        1.0483670166
 H          3.2366786551        0.0350247721       -1.0801895911
 H          1.3978745652        2.8800543263        0.1594826276
 H         -1.0274934107        3.0053356816        0.4413371734
 H         -3.1583243125        1.8079783997        1.0006133365
 H         -3.3657200942       -0.1407176681       -1.3472983526
 H         -4.7316635692        0.7371696959       -0.5012398814
 H         -2.5253157230       -1.5118364158        0.3399125369
 H         -1.4281769811       -3.6864013312        0.0951686002
 H          1.0129838389       -3.8111003980       -0.2555595755
 H          2.3522644003       -1.7706319625       -0.3038643784
