  21
        -34.38618835
 C          3.6715430995       -0.9437681699       -0.3859981650
 C          2.5287515248       -1.2887175364        0.1954542139
 C          1.2687776306       -0.5556007108        0.1301076065
 C          0.0722372447       -1.2566287459        0.1427178687
 C         -1.1749814872       -0.6299916264        0.0411719883
 C         -2.3849198261       -1.4368188505        0.0451435999
 C         -3.6420593316       -1.0149268918       -0.0321346021
 C         -1.1034923130        0.7618085035       -0.0553772344
 F         -2.2159368045        1.5052007934       -0.1755198990
 N         -0.0021229522        1.4669222242       -0.0188949503
 C          1.1758064080        0.8549739118        0.0735869970
 N          2.2603339063        1.6772420025        0.0959298013
 H          4.5483496944       -1.5630348376       -0.2997007347
 H          3.7644746935       -0.0682511403       -1.0054949718
 H          2.4754060409       -2.2216869848        0.7444913461
 H          0.1030675471       -2.3355068048        0.2140321185
 H         -2.1917399895       -2.5008598249        0.1220773147
 H         -3.9119187453        0.0222509429       -0.1101892517
 H         -4.4576600728       -1.7181641939       -0.0191676404
 H          2.0443340122        2.6511114989        0.2369065142
 H          3.1070706138        1.3256444108        0.5117516584
