  48
        -55.80292900
 C          4.7709365462        0.0009593998        1.5037316709
 C          3.5871288519        0.5994390671        1.5052650058
 C          2.4637820004        0.2713578735        0.6469455951
 C          1.1583947598        0.3972082240        1.0452530945
 N          0.3095719499       -0.0901450684        0.0878603164
 Si        -1.4612030035       -0.0092957242        0.1028287872
 C         -1.9617716009        0.4364290860        1.9051081967
 C         -3.4498174980        0.7615353240        2.0198661996
 C         -1.6067812881       -0.6653923768        2.9038465431
 C         -1.9330088054        1.4246047850       -1.0962766988
 C         -1.4131714497        2.7667815488       -0.5774985397
 C         -1.4086057910        1.1998080057       -2.5143507978
 C         -2.2691845632       -1.6982231099       -0.3642739388
 C         -3.6401908393       -1.4995258699       -1.0137588227
 C         -1.4160244369       -2.6056019127       -1.2482865630
 C          1.0977211933       -0.5149925754       -0.9469137353
 C          2.4235986312       -0.3105799215       -0.6653098653
 C          3.4830682604       -0.5673191235       -1.6231666109
 C          4.6233644622        0.1029346846       -1.7244286429
 H          5.5433619577        0.2792442431        2.2008475860
 H          5.0088632757       -0.7870267515        0.8102841856
 H          3.3747394130        1.3639251811        2.2445804467
 H          0.7829690572        0.7896348914        1.9680586955
 H         -1.4145197997        1.3372829336        2.1988050758
 H         -4.0513092619       -0.1160502663        1.7959968254
 H         -3.7333705092        1.5564887930        1.3351431085
 H         -3.6917892225        1.0821613958        3.0323434203
 H         -2.2140985716       -1.5503447955        2.7292060086
 H         -1.7946183814       -0.3288906650        3.9226899367
 H         -0.5611994991       -0.9513553534        2.8250805764
 H         -3.0239397887        1.4895440403       -1.1553350947
 H         -0.3302590571        2.7408223932       -0.4761974145
 H         -1.8426053463        3.0073926642        0.3913860299
 H         -1.6695349497        3.5664308522       -1.2708193143
 H         -0.3212874994        1.1964522151       -2.5193162175
 H         -1.7465014145        1.9975478500       -3.1744995807
 H         -1.7584971868        0.2544167366       -2.9213899410
 H         -2.4339087556       -2.2428017867        0.5716269252
 H         -3.5430941718       -1.0118003246       -1.9802067017
 H         -4.2880496508       -0.8894567869       -0.3905813129
 H         -4.1261914299       -2.4616345806       -1.1701829336
 H         -1.2622725693       -2.1607390277       -2.2286727113
 H         -1.9159783842       -3.5627855836       -1.3931725112
 H         -0.4473063237       -2.7938331556       -0.7935133875
 H          0.6654127591       -0.9119803490       -1.8418205782
 H          3.2518048977       -1.3422012453       -2.3458913039
 H          4.8748215357        0.9027931245       -1.0495956428
 H          5.3448848275       -0.1262805610       -2.4905356479
