  20
        -34.65888624
 C         -3.9370852813       -0.8936903385        0.2515278417
 C         -2.9202216587       -0.0513496307        0.1165814913
 C         -1.5224775624       -0.4334715084        0.0051034079
 C         -1.0629463935       -1.6938279269       -0.2794536026
 S          0.6360747272       -1.7951435477       -0.3801951355
 C          0.7829940417       -0.1021429059       -0.0358231564
 C          2.1689469986        0.3684020026        0.0969099469
 O          3.0997629202       -0.3489131631       -0.1634923681
 O          2.3636492427        1.6172780788        0.5505446369
 C         -0.4464129418        0.4980890708        0.1394125408
 C         -0.6895603607        1.9136906700        0.4257745220
 C         -0.2245945152        2.9216154516       -0.3026966207
 H         -4.9506788346       -0.5400223247        0.3237641755
 H         -3.7985905099       -1.9597861772        0.3019607919
 H         -3.1087879721        1.0135924737        0.0832148480
 H         -1.6523458120       -2.5717047143       -0.4538934080
 H          1.5305220824        2.0963799741        0.6934043882
 H         -1.3380228723        2.1056649510        1.2725627159
 H          0.3798598832        2.7601668918       -1.1812368229
 H         -0.4573476684        3.9452430315       -0.0636631606
