24
 energy: -41.280019846319 gnorm: 0.000074362988 xtb: 6.4.1 (23d549d)
C         4.32798501240000   -1.20495779940000    0.03505368990000
C         3.08541814250000   -1.67113396060000   -0.00255473680000
C         1.85410000280000   -0.88929263950000   -0.01758696610000
C         1.84706018250000    0.50427817630000   -0.07000219150000
C         0.67680608120000    1.26982030200000   -0.08567971570000
C         0.69677388770000    2.72810208450000   -0.15173260030000
C         1.70331285790000    3.50418386930000    0.22840522140000
C        -0.52332068310000    0.56485666490000   -0.05308137190000
C        -0.54098693690000   -0.83870495160000   -0.00202331050000
C         0.63065189770000   -1.56896698690000    0.01539166600000
C        -1.93914195390000   -1.27858357780000    0.02860047770000
O        -2.39744670990000   -2.39025570710000    0.06748638080000
C        -2.75357225940000    0.04342481640000    0.00066118130000
O        -3.94725631780000    0.19013125870000    0.01770050260000
N        -1.82366578960000    1.04763846330000   -0.04850171710000
H         5.17186346240000   -1.87260218580000    0.04589919970000
H         4.56209382990000   -0.15456107930000    0.05873029620000
H         2.93022353520000   -2.74252130950000   -0.01782777340000
H         2.78844356930000    1.02648899410000   -0.12333890150000
H        -0.20342306500000    3.18717771570000   -0.54089850120000
H         2.61169231970000    3.10777234680000    0.64844575460000
H         1.64668700280000    4.57561147650000    0.14674794780000
H         0.59219910070000   -2.64692113220000    0.05272044690000
H        -2.06800029950000    2.02576429990000   -0.06032479030000
