24
 energy: -42.107782248576 gnorm: 0.000049844942 xtb: 6.4.1 (23d549d)
C        -3.86670598290000   -1.05032640620000   -0.06008705700000
C        -3.08858151170000    0.02507461230000   -0.03361527940000
C        -1.63283111420000    0.03802583120000    0.01821479260000
C        -0.84536614640000   -1.10597212380000    0.08670841000000
C         0.54435969600000   -1.08609311600000    0.14982314800000
C         1.24227120840000   -2.36972870100000    0.31495223920000
C         0.92740421370000   -3.47563887360000   -0.34298074330000
C         1.20947044940000    0.15061190450000    0.11312390110000
O         2.54438559290000    0.38489003170000    0.12551439580000
C         3.46743231770000   -0.58244093910000   -0.32478057410000
C         0.42519637820000    1.31120605600000    0.05269860360000
F         1.04631605950000    2.50423821840000    0.02321731230000
C        -0.95445558520000    1.26060643460000    0.01590863990000
F        -1.64341134710000    2.41535547380000   -0.03719790760000
H        -4.93791675470000   -0.95766756900000   -0.09848039890000
H        -3.48027367740000   -2.05481612470000   -0.04459271440000
H        -3.54457290160000    1.00590781250000   -0.05401881870000
H        -1.33010205450000   -2.06752096820000    0.12928992510000
H         2.02675722140000   -2.39068433970000    1.05854350510000
H         0.16175234170000   -3.48816770660000   -1.10076867890000
H         1.43850079170000   -4.40521766240000   -0.16194119500000
H         4.28331037760000   -0.02233007830000   -0.78462268710000
H         3.02674370370000   -1.25477830730000   -1.06268417980000
H         3.86902155770000   -1.16260489720000    0.50996015760000
