  47
        -67.15877155
 C         -4.8145774091        4.2425315142       -0.0109346700
 C         -3.9272978141        3.0349067180       -0.0222055938
 C         -2.7475086051        3.0119420276        0.7124076116
 C         -1.9367361487        1.8949529711        0.7280791162
 C         -2.2845996068        0.7623845244       -0.0062435014
 N         -1.4628125942       -0.3727495954        0.0003758756
 C         -0.0739513224       -0.2262557750       -0.0010493511
 C          0.7370798539       -1.1117572512        0.7101261012
 C          2.1077462837       -0.9658775949        0.7011970653
 C          2.7175044876        0.0728098905       -0.0009653299
 C          4.1775786637        0.2288137580       -0.0010276330
 C          5.0123856047       -0.8836689647       -0.0874573167
 C          6.3866091792       -0.7357646285       -0.0891608829
 C          6.9522331792        0.5251941305       -0.0008169279
 C          6.1330013863        1.6382555690        0.0874597536
 C          4.7585667578        1.4925482372        0.0855070981
 C          1.9015786176        0.9592281258       -0.7024282045
 C          0.5310361035        0.8116761924       -0.7110694478
 C         -2.0374375757       -1.6475786459        0.0095157494
 C         -1.4499065940       -2.6951109057       -0.7002566071
 C         -2.0207691393       -3.9525661789       -0.6857302165
 C         -3.1865665055       -4.1868576429        0.0249827584
 C         -3.7773553396       -3.1490175892        0.7270382578
 C         -3.2096954938       -1.8899884201        0.7257804109
 C         -3.4641908083        0.7804663539       -0.7481397925
 C         -4.2710921645        1.9008339782       -0.7477192881
 H         -4.2266700305        5.1544969866        0.0667813008
 H         -5.4885015068        4.2040034597        0.8459623085
 H         -5.4196379156        4.2880517907       -0.9134184005
 H         -2.4623687525        3.8809205342        1.2882754381
 H         -1.0273831176        1.8917023420        1.3112330347
 H          0.2809686966       -1.9113872379        1.2755101588
 H          2.7160583361       -1.6499995678        1.2746308270
 H          4.5781045742       -1.8691438092       -0.1747631416
 H          7.0204014247       -1.6079165232       -0.1622587096
 H          8.0262026530        0.6399163782       -0.0003703769
 H          6.5683098863        2.6245642195        0.1609055290
 H          4.1258470684        2.3640223893        0.1725736958
 H          2.3511108490        1.7571619462       -1.2752472406
 H         -0.0844957644        1.4975606175       -1.2747516578
 H         -0.5471631710       -2.5129463555       -1.2649067007
 H         -1.5561954504       -4.7538012845       -1.2417363948
 H         -3.6314562665       -5.1703443553        0.0311765105
 H         -4.6839851519       -3.3229074020        1.2880155789
 H         -3.6674747570       -1.0849911791        1.2819620532
 H         -3.7415705131       -0.0884486013       -1.3269601698
 H         -5.1810981250        1.8970418851       -1.3307657119
