  34
        -48.19910672
 C          5.8674060614       -0.9294968861        0.5051484832
 C          5.0202147333       -0.0692622702       -0.0472324754
 C          3.5650003111       -0.1432198737       -0.0307633826
 C          2.8609570615       -1.2044537275        0.5416109163
 C          1.4819838672       -1.2123802341        0.5216420030
 C          0.7505017156       -0.1750942046       -0.0467651774
 C         -0.7236939104       -0.2471656404       -0.0519456902
 C         -1.3504270062       -1.3429210054       -0.6338369314
 C         -2.7245819943       -1.4625953506       -0.6507487098
 C         -3.5283680663       -0.4785478427       -0.0707510884
 C         -4.9765193319       -0.6359779639       -0.1135207973
 C         -5.8871923467        0.2555097816        0.2588878490
 C         -2.9050790947        0.6072954078        0.5352272125
 C         -1.5199494517        0.7399410971        0.5570882490
 N         -0.9463288283        1.8539792189        1.1353649552
 C          1.4459183906        0.8922130369       -0.6420110226
 N          0.7700844837        1.9566710980       -1.2018371897
 C          2.8377315124        0.8858007187       -0.6217731664
 H          6.9326336001       -0.7866948561        0.4399198993
 H          5.5428038201       -1.8038552208        1.0424424413
 H          5.4194040481        0.7928482430       -0.5691412588
 H          3.3893983010       -2.0257361814        0.9981138398
 H          0.9431164480       -2.0363546812        0.9682036305
 H         -0.7365012431       -2.1064948846       -1.0904908047
 H         -3.1839400354       -2.3210241895       -1.1187878374
 H         -5.3101632257       -1.5887165079       -0.5076906586
 H         -5.6290020239        1.2265949822        0.6453429335
 H         -6.9404966159        0.0450948983        0.1845454187
 H         -3.4969440356        1.3707539888        1.0181564985
 H         -1.5099942918        2.3457141069        1.8089539722
 H          0.0304765453        1.7811828307        1.3688325030
 H         -0.1971468271        1.7988013719       -1.4328410112
 H          1.2833873620        2.5100218378       -1.8677554557
 H          3.3631758553        1.7100059406       -1.0862676783
