34
 energy: -48.199106724614 gnorm: 0.000042956066 xtb: 6.4.1 (23d549d)
C         5.86740606140000   -0.92949688610000    0.50514848320000
C         5.02021473330000   -0.06926227020000   -0.04723247540000
C         3.56500031110000   -0.14321987370000   -0.03076338260000
C         2.86095706150000   -1.20445372750000    0.54161091630000
C         1.48198386720000   -1.21238023410000    0.52164200300000
C         0.75050171560000   -0.17509420460000   -0.04676517740000
C        -0.72369391040000   -0.24716564040000   -0.05194569020000
C        -1.35042700620000   -1.34292100540000   -0.63383693140000
C        -2.72458199430000   -1.46259535060000   -0.65074870980000
C        -3.52836806630000   -0.47854784270000   -0.07075108840000
C        -4.97651933190000   -0.63597796390000   -0.11352079730000
C        -5.88719234670000    0.25550978160000    0.25888784900000
C        -2.90507909470000    0.60729540780000    0.53522721250000
C        -1.51994945170000    0.73994109710000    0.55708824900000
N        -0.94632882830000    1.85397921890000    1.13536495520000
C         1.44591839060000    0.89221303690000   -0.64201102260000
N         0.77008448370000    1.95667109800000   -1.20183718970000
C         2.83773151240000    0.88580071870000   -0.62177316640000
H         6.93263360010000   -0.78669485610000    0.43991989930000
H         5.54280382010000   -1.80385522080000    1.04244244130000
H         5.41940404810000    0.79284824300000   -0.56914125880000
H         3.38939830100000   -2.02573618140000    0.99811383980000
H         0.94311644800000   -2.03635468120000    0.96820363050000
H        -0.73650124310000   -2.10649488460000   -1.09049080470000
H        -3.18394003540000   -2.32102418950000   -1.11878783740000
H        -5.31016322570000   -1.58871650790000   -0.50769065860000
H        -5.62900202390000    1.22659498220000    0.64534293350000
H        -6.94049661590000    0.04509489830000    0.18454541870000
H        -3.49694403560000    1.37075398880000    1.01815649850000
H        -1.50999429180000    2.34571410690000    1.80895397220000
H         0.03047654530000    1.78118283070000    1.36883250300000
H        -0.19714682710000    1.79880137190000   -1.43284101120000
H         1.28338736200000    2.51002183780000   -1.86775545570000
H         3.36317585530000    1.71000594060000   -1.08626767830000
