49
 energy: -65.998283415130 gnorm: 0.000042875757 xtb: 6.4.1 (23d549d)
C        -5.92046586140000   -2.88282060630000   -0.00061479810000
C        -5.51233600440000   -1.72599661100000   -0.51006667360000
C        -4.17722278340000   -1.15588185290000   -0.41857909400000
C        -3.92072129540000    0.08766525190000   -0.99564591840000
C        -2.67161766820000    0.67094964230000   -0.93212019390000
C        -1.61779673030000    0.04973696910000   -0.26047256210000
C        -1.87282563680000   -1.20503927800000    0.30287878300000
C        -3.11547393690000   -1.79771360640000    0.22031679670000
S        -0.59642138290000   -2.05332494750000    1.19534387930000
C         0.80562962510000   -1.44747586480000    0.29339515130000
C         1.92165647390000   -2.25301894150000    0.20227012270000
C         3.07972853030000   -1.80738709560000   -0.43610476780000
C         4.29079686920000   -2.60678907850000   -0.53670825960000
C         4.48068122930000   -3.82854286920000   -0.05130759440000
C         3.05078342850000   -0.53144630650000   -0.99899943540000
C         1.92734948000000    0.26599256240000   -0.92510491810000
C         0.77693669350000   -0.16495540060000   -0.26320622280000
N        -0.35871734560000    0.63504536310000   -0.16963857900000
C        -0.21776366400000    2.07647152300000   -0.18581539740000
C         0.67227990060000    2.54095249960000    0.97151724170000
C         0.72568479430000    4.06320964700000    1.09826631680000
C         1.39652110850000    4.78623092360000   -0.07254698650000
C         2.85493443420000    4.39796471210000   -0.32273946790000
C         3.77156034190000    4.71496967240000    0.85269654570000
H        -6.93551326000000   -3.21969208060000   -0.12254736990000
H        -5.27091158240000   -3.53704925400000    0.55460005490000
H        -6.22147637640000   -1.11528205310000   -1.05628312010000
H        -4.71434727390000    0.60596889180000   -1.51454765030000
H        -2.51260492800000    1.61958690420000   -1.42138991430000
H        -3.25164084110000   -2.76254070980000    0.68173731970000
H         1.88453701790000   -3.22901071950000    0.65875831190000
H         5.10107413470000   -2.12359110620000   -1.06985065750000
H         3.72063063610000   -4.36620115840000    0.48854350350000
H         5.41876835870000   -4.34071296030000   -0.17916263440000
H         3.92598297700000   -0.15704250330000   -1.51078572710000
H         1.94365772110000    1.23555549240000   -1.39690092590000
H        -1.20840214460000    2.51018671580000   -0.04228125560000
H         0.17274184580000    2.43020326250000   -1.14686519760000
H         1.67881137290000    2.13942616590000    0.85712005450000
H         0.26176178770000    2.12687452880000    1.89596475160000
H         1.25354810720000    4.31358568710000    2.01962776380000
H        -0.29405843460000    4.44509108900000    1.19628248560000
H         1.35462649670000    5.85982696010000    0.12833395400000
H         0.82380614800000    4.60871886840000   -0.98547870540000
H         3.20415459760000    4.94710118870000   -1.20092836620000
H         2.92599670060000    3.33463338270000   -0.55690133040000
H         3.67962503520000    5.76137235380000    1.13603993620000
H         4.80785718940000    4.52288179280000    0.58387584550000
H         3.52855729600000    4.10047674680000    1.71561304170000
