  23
        -38.06209227
 C         -4.4820207249        0.4131198137        0.1992033514
 C         -3.3406067298        0.6920279988       -0.4114476659
 C         -2.0760299784       -0.0039171948       -0.1395064232
 C         -2.0986972352       -1.3929619891       -0.0229040512
 C         -0.9368538000       -2.1056612022        0.1961251541
 C          0.2679332326       -1.4384625262        0.2977853870
 C          0.3170622141       -0.0496764692        0.1915978775
 C          1.5907109791        0.6542233347        0.3257312115
 C          2.7844931826        0.1853768854        0.0028660970
 F          3.0786435820       -0.9917861799       -0.5377350547
 F          3.9122353808        0.8794437944        0.1638241773
 C         -0.8625747660        0.6812591556       -0.0196425917
 C         -0.8057522445        2.1797606429       -0.0949196507
 H         -5.3969681127        0.9260357361       -0.0438092081
 H         -4.5415404911       -0.3268465035        0.9801994552
 H         -3.3164600328        1.4548223780       -1.1792097996
 H         -3.0405499093       -1.9106036456       -0.1259381497
 H         -0.9674434030       -3.1811638481        0.2838274590
 H          1.1731232786       -1.9957213074        0.4780051267
 H          1.5806573594        1.6587686629        0.7195192074
 H         -0.1373427677        2.4998316674       -0.8933069825
 H         -0.4338636003        2.5904940545        0.8438390157
 H         -1.7877726029        2.6055438422       -0.2701205786
