23
 energy: -31.183889576304 gnorm: 0.000024398604 xtb: 6.4.1 (23d549d)
C        -2.79889013270000   -1.36591428060000    0.18037181970000
C        -1.55114679100000   -1.33015984100000   -0.27132875140000
C        -0.61672787240000   -0.24104848760000   -0.09145166430000
C        -0.87857094970000    1.14675468060000    0.00325908110000
C        -2.18638280650000    1.85306396680000    0.00851047520000
N         0.25453860400000    1.82651304520000    0.05663782670000
N         1.24395076240000    0.94003155530000   -0.00186755010000
C         2.60477172340000    1.38446584280000    0.07166598990000
C         0.78096108780000   -0.33256589660000   -0.09041044690000
C         1.66561406510000   -1.46923835700000   -0.15270323650000
C         1.35108967190000   -2.70099823020000    0.23534313600000
H        -3.44141767090000   -2.20756213440000   -0.01635166750000
H        -3.21746791570000   -0.57570967370000    0.77788286750000
H        -1.16298682980000   -2.16864903810000   -0.83864760720000
H        -2.86753074190000    1.39261829890000   -0.70467940390000
H        -2.03003127290000    2.89638042950000   -0.25261634720000
H        -2.64130966580000    1.81118219150000    0.99805916320000
H         2.58463484340000    2.46499070590000    0.19735051110000
H         3.14550774330000    1.13984475390000   -0.84575636540000
H         3.11737526510000    0.92875100160000    0.92129376830000
H         2.65678561470000   -1.26735199300000   -0.54113177630000
H         0.39477103030000   -2.93513559000000    0.66908689460000
H         2.05321156260000   -3.51216079230000    0.14642028590000
