  24
        -34.12225376
 C          4.1066489865       -1.0147457441       -0.1135138581
 C          3.4318852098        0.1154029855       -0.2896946480
 C          2.0032278610        0.3218240539       -0.0965507901
 C          1.4672129685        1.5958932931       -0.2927640160
 C          0.1215390168        1.8332726963       -0.1185276572
 C         -0.7519159772        0.8135676404        0.2594625209
 C         -2.1761011704        1.0848662135        0.4403565710
 C         -2.8678975705        1.9677975187       -0.2669674457
 C         -0.2206104835       -0.4677435287        0.4651298273
 C         -1.1187279005       -1.6201670322        0.8547411759
 C         -2.1319213187       -1.8326241015       -0.1498143262
 N         -2.9245808180       -1.9986091289       -0.9561664796
 C          1.1297966844       -0.6986118179        0.2793478584
 H          5.1683241798       -1.0631229349       -0.2840599128
 H          3.6418928054       -1.9323608974        0.2039555131
 H          3.9702421570        0.9998012594       -0.6086621083
 H          2.1200191839        2.4070743781       -0.5823392379
 H         -0.2684636609        2.8300654566       -0.2586067372
 H         -2.6848245064        0.5098277632        1.2035210740
 H         -2.4222314460        2.5380478836       -1.0644412923
 H         -3.9166446305        2.1323672116       -0.0908565992
 H         -1.6144042721       -1.4217708244        1.8112409588
 H         -0.5348807960       -2.5393336990        0.9548115950
 H          1.5148433640       -1.6963865402        0.4294869762
