  22
        -36.99046309
 C          4.3511265751        0.1772423265       -0.0129876674
 C          3.2070491834        0.8494107500       -0.0653421706
 C          1.9012115479        0.2075589773       -0.0130035413
 C          0.7295775690        0.9672976238       -0.0597579017
 C         -0.5039613990        0.3347560463        0.0005858418
 C         -1.7155062693        1.2131340850        0.0579323544
 O         -1.8797873616        2.1528290499       -0.6665435989
 O         -2.5902028029        0.9320080820        1.0433180267
 C         -0.5469628099       -1.0674456352        0.0597809860
 C         -1.7701357370       -1.8602708478       -0.0061734964
 C         -2.8565722064       -1.5213163822       -0.6904250214
 C          0.6905993461       -1.7215082630        0.1212495383
 N          1.8558785924       -1.1223397085        0.0941055437
 H          5.3056779156        0.6723562916       -0.0555403448
 H          4.3483474588       -0.8956122544        0.0741430474
 H          3.1930396293        1.9273212465       -0.1537207071
 H          0.7688356120        2.0440264174       -0.1232890592
 H         -2.3624429937        0.1232251151        1.5210970468
 H         -1.7191335487       -2.8222522506        0.4891609950
 H         -2.9245084360       -0.5980576100       -1.2423342309
 H         -3.7156324431       -2.1678738901       -0.7367149480
 H          0.7241972771       -2.8023703189        0.1856361351
  22
        -36.99002201
 C          3.8421412696        1.4185797869       -0.0964520036
 C          3.3227486355        0.1968286831       -0.1137683597
 C          1.9072479653       -0.1368806635       -0.0336922313
 C          0.8837407546        0.8090290987        0.0533382234
 C         -0.4378369953        0.3888803973        0.1002604347
 C         -1.4866504111        1.4572077387        0.1147556469
 O         -1.3202015705        2.5176596711        0.6490301138
 O         -2.6242850235        1.1872231570       -0.5489910611
 C         -0.7206818575       -0.9873752053        0.1050457830
 C         -2.0710113120       -1.5306714845        0.2480435164
 C         -2.4994113382       -2.6282180801       -0.3635281347
 C          0.3849550583       -1.8428433787        0.0343380469
 N          1.6312067572       -1.4435185646       -0.0477723728
 H          4.9057047794        1.5721958927       -0.1577560017
 H          3.2406389247        2.3082059377       -0.0183979772
 H          3.9621028666       -0.6720493089       -0.1892257984
 H          1.0889512400        1.8670364764        0.0693881033
 H         -2.6317785280        0.2972058103       -0.9312869472
 H         -2.7291056612       -0.9956244357        0.9231106667
 H         -1.8783491447       -3.1761077441       -1.0525787097
 H         -3.4936765635       -3.0086508667       -0.2063474452
 H          0.2384749173       -2.9149059345        0.0628913729
  22
        -36.98983788
 C          3.7830517188        1.5442568186       -0.1523812472
 C          3.3498763112        0.2980454327       -0.0040119934
 C          1.9586559567       -0.1314716242        0.0293609892
 C          0.8690229426        0.7403611265       -0.0347725706
 C         -0.4207419659        0.2320999515        0.0107783154
 C         -1.5378686103        1.2289336620        0.0515652798
 O         -1.5898718803        2.1848565648       -0.6686947696
 O         -2.4564760488        1.0338522076        1.0171458179
 C         -0.6071047397       -1.1587813709        0.0719105211
 C         -1.9031500682       -1.8236900225       -0.0131486232
 C         -2.9355007942       -1.3806015594       -0.7212069111
 C          0.5566734905       -1.9327844879        0.1552326970
 N          1.7757177834       -1.4495887998        0.1431483368
 H          4.8354538313        1.7691995789       -0.1706447302
 H          3.1192474790        2.3845136688       -0.2653428584
 H          4.0505153661       -0.5192845645        0.0985146100
 H          1.0050819945        1.8077189758       -0.0985793578
 H         -2.3225342598        0.2035477691        1.4936809319
 H         -1.9599914102       -2.7824116021        0.4878152240
 H         -2.8975209302       -0.4589641000       -1.2787328512
 H         -3.8548187204       -1.9366755664       -0.7824874485
 H          0.4831238749       -3.0111989323        0.2247877052
  22
        -36.98931464
 C          3.8388407411        1.3668616284        0.1810501649
 C          3.3049114045        0.1544096823        0.0940896433
 C          1.8852577155       -0.1687191314        0.0486859959
 C          0.8631980066        0.7726878974        0.1840294454
 C         -0.4627546028        0.3663817873        0.0951017979
 C         -1.5507155684        1.3895358936        0.1851684576
 O         -2.5316199983        1.3905458755       -0.5028286441
 O         -1.3549688135        2.3513402651        1.1083818792
 C         -0.7520821630       -0.9908627735       -0.1299326855
 C         -2.1143258127       -1.4903983819       -0.2340425428
 C         -2.4599768848       -2.5917037345       -0.8906515905
 C          0.3542924386       -1.8492808641       -0.1981585332
 N          1.6045089024       -1.4633880423       -0.1190187887
 H          4.9059256781        1.5043298466        0.2034706821
 H          3.2505402795        2.2681413242        0.2256089969
 H          3.9392662417       -0.7193393510        0.0381451039
 H          1.1085678498        1.8167686919        0.3166317254
 H         -0.5418546546        2.2199500838        1.6149998450
 H         -2.8780667499       -0.8879015245        0.2368778207
 H         -1.7459727786       -3.1957850391       -1.4249230951
 H         -3.4857037051       -2.9131175702       -0.9371495047
 H          0.2071924719       -2.9149413937       -0.3115607117
  22
        -36.98922592
 C          3.8267463881        1.3381557355        0.4189118210
 C          3.2978807957        0.1429876567        0.1850634757
 C          1.8827332982       -0.1662792031        0.0317506377
 C          0.8574845551        0.7730087189        0.1582891332
 C         -0.4642722688        0.3772405393       -0.0061634966
 C         -1.5404536488        1.4119237734        0.1188406620
 O         -2.4551621475        1.5351602786       -0.6448326831
 O         -1.4018422813        2.2455795251        1.1674420814
 C         -0.7474440013       -0.9691996129       -0.2961337540
 C         -2.1082733371       -1.4565163939       -0.4714042979
 C         -2.4906420747       -2.7120961929       -0.2690571237
 C          0.3626087959       -1.8184835487       -0.4013835746
 N          1.6091416995       -1.4438842655       -0.2429121495
 H          4.8909772377        1.4664746068        0.5139405464
 H          3.2371309141        2.2340473708        0.5194394483
 H          3.9336171378       -0.7256286154        0.0833793814
 H          1.0947863908        1.8093083468        0.3517967912
 H         -0.6356141657        2.0288574895        1.7160993294
 H         -2.8325452769       -0.7134691631       -0.7721793629
 H         -1.8132988931       -3.4801750879        0.0658052869
 H         -3.5134346039       -3.0122202897       -0.4168931009
 H          0.2250759060       -2.8620220180       -0.6502928156
  22
        -36.98807164
 C          3.7743598733        1.5376192564       -0.0538415591
 C          3.3368834559        0.2854715143        0.0031148399
 C          1.9464907570       -0.1479815766        0.0359006886
 C          0.8542007533        0.7222404182       -0.0011996858
 C         -0.4347507657        0.2072693240        0.0386851956
 C         -1.5759554265        1.1735197777        0.1303495474
 O         -2.3637859063        1.1963401391        1.0296797976
 O         -1.6213155644        2.0856993416       -0.8645380903
 C         -0.6166934727       -1.1820170596        0.0949452561
 C         -1.9181204936       -1.8341725111        0.0667132655
 C         -2.9815825625       -1.3933947469       -0.5917145325
 C          0.5502640330       -1.9546617742        0.1443461887
 N          1.7681758401       -1.4687382784        0.1128053804
 H          4.8274262372        1.7586457731       -0.0725842161
 H          3.1166661538        2.3902122901       -0.0794629985
 H          4.0370465743       -0.5378350370        0.0324402372
 H          1.0078491291        1.7911917556       -0.0203418334
 H         -0.9136271055        1.9615921042       -1.5116414257
 H         -1.9626837208       -2.7796103552        0.5917661489
 H         -2.9744126991       -0.4816790767       -1.1653197288
 H         -3.9091167038       -1.9386102113       -0.5856545381
 H          0.4810258192       -3.0337855129        0.2030693163
