19
 energy: -35.162541065750 gnorm: 0.000035376516 xtb: 6.4.1 (23d549d)
C         0.01547948070000    2.53155298810000    0.14506180260000
C         0.67933797980000    1.68426520690000   -0.62667867280000
C         1.09642410580000    0.33726403150000   -0.22839967430000
N         2.32734295300000    0.01090769810000   -0.60808520220000
C         2.85789748870000   -1.12759878300000   -0.21227596810000
C         2.19833321390000   -2.01948287890000    0.62111426100000
C         0.89704450730000   -1.72135728550000    0.98181770280000
C         0.30325760220000   -0.54312857490000    0.53228654370000
C        -1.10825262590000   -0.31590585610000    0.84477247450000
C        -2.02247123640000    0.09203023990000   -0.01791582330000
F        -1.82927301710000    0.40066604530000   -1.29290177050000
F        -3.30971034730000    0.24604859130000    0.28341846390000
H        -0.21563071960000    3.52926559350000   -0.18576372920000
H        -0.31232305420000    2.27001503710000    1.13826435650000
H         1.04631971650000    1.99154142480000   -1.59552429070000
H         3.85932223040000   -1.32514334090000   -0.57119038310000
H         2.67725808220000   -2.92480848700000    0.95872666810000
H         0.32542933950000   -2.40670888570000    1.59179207320000
H        -1.45183778330000   -0.57764511360000    1.83465005270000
