  51
        -58.13385553
 C         -6.7481365121       -1.7178240443        0.8190494064
 C         -6.0650725181       -0.3684905871        0.6312626476
 C         -5.4768498110       -0.2263934349       -0.7710801087
 C         -4.8793362788        1.1544187613       -1.0437397158
 C         -3.6182711075        1.4419035949       -0.2313334253
 C         -3.0045968781        2.7887133643       -0.6082493006
 C         -1.8320699362        3.1948473282        0.2863029832
 C         -0.6125430250        2.2730199503        0.2214660049
 C          0.0737536341        2.2772694634       -1.1427772287
 C          1.3011874108        1.3673234140       -1.2008587995
 C          2.4687641978        1.8685723376       -0.3547241959
 C          3.7144364031        0.9893927037       -0.5192733458
 C          3.4626827657       -0.4268721080       -0.0999765886
 C          3.2666133704       -1.4844532941       -1.0304784556
 C          3.0295728356       -2.6903415864       -0.4590194825
 C          2.7832436235       -4.0019467193       -1.1155972371
 S          3.0398015620       -2.5577545462        1.2733029644
 C          3.3705889947       -0.8511935589        1.1908537173
 C          3.4969642603       -0.0678673284        2.4503904317
 H         -7.1596655138       -1.8034706044        1.8222293841
 H         -6.0379277988       -2.5283388156        0.6693332254
 H         -7.5593566993       -1.8387946691        0.1040734939
 H         -5.2744588511       -0.2635474663        1.3758729733
 H         -6.7902920100        0.4312788412        0.7991523996
 H         -6.2690580679       -0.4139477187       -1.5006353939
 H         -4.7075501619       -0.9883445846       -0.9183536255
 H         -5.6300342524        1.9194798630       -0.8305025946
 H         -4.6324900133        1.2245627463       -2.1064725214
 H         -2.8960704313        0.6431399573       -0.4085992200
 H         -3.8582490085        1.4490580091        0.8333477996
 H         -3.7763455765        3.5587018597       -0.5245666096
 H         -2.6859088668        2.7646162460       -1.6517722625
 H         -2.1832646978        3.2313840775        1.3209663324
 H         -1.5187377147        4.2053723788        0.0109823403
 H         -0.9045987562        1.2528946324        0.4760711505
 H          0.0973077424        2.6086539960        0.9801252257
 H          0.3684343878        3.2991939381       -1.3950480409
 H         -0.6355546177        1.9403556181       -1.9008064682
 H          1.6313322104        1.2924726242       -2.2404024350
 H          1.0224561867        0.3639952769       -0.8710474559
 H          2.1840157902        1.8810658722        0.6974337047
 H          2.7162383706        2.8913888155       -0.6495735810
 H          4.5276429707        1.4120999520        0.0770044687
 H          4.0259326980        0.9978316002       -1.5657037588
 H          3.3057996479       -1.3380737172       -2.0960829282
 H          2.8205042308       -3.8869426600       -2.1964525019
 H          1.8057234976       -4.3958058305       -0.8373364830
 H          3.5343858716       -4.7315942108       -0.8134095210
 H          3.9208020851       -0.6843896673        3.2406260251
 H          2.5203565728        0.2840712051        2.7875178032
 H          4.1371966314        0.7985257925        2.2957128589
