47
 energy: -56.031843470425 gnorm: 0.000037815511 xtb: 6.4.1 (23d549d)
C         2.98106140840000   -4.06469968140000    2.18222330560000
C         2.60880994930000   -3.53379865210000    1.02074008560000
C         2.69055370800000   -2.13916592850000    0.68676809280000
C         2.32684913040000   -1.54975392840000   -0.49572945740000
C         2.52823058360000   -0.15648233640000   -0.53669075480000
C         2.15473265160000    0.65574228660000   -1.73757137630000
C         0.63904632950000    0.88824277670000   -1.80564801670000
C         0.13467089440000    1.75040221950000   -0.65161349360000
C        -1.35977222340000    2.05993500140000   -0.73998435410000
C        -2.24831235100000    0.83550343170000   -0.53066519670000
C        -3.72819964130000    1.21097456570000   -0.49320729150000
C        -4.62015542580000   -0.01488168480000   -0.31041830720000
C        -6.09685159350000    0.32995065280000   -0.11050530140000
C        -6.76010072410000    1.04166975540000   -1.29095418680000
C        -6.78191889160000    0.20387576030000   -2.56399154790000
C         3.05275358360000    0.33161577730000    0.64107807490000
C         3.38932796530000    1.68804681280000    0.97401175240000
C         3.86189355420000    2.08976428120000    2.15119452570000
S         3.30068903310000   -0.95028065860000    1.79648708390000
H         2.89722708190000   -5.11926285070000    2.37596817160000
H         3.38203025560000   -3.45373659350000    2.97408550750000
H         2.20788714410000   -4.16177703290000    0.23460178760000
H         1.92673709000000   -2.10890969490000   -1.32431479300000
H         2.46764410300000    0.11463972470000   -2.63435451670000
H         2.67032829600000    1.61665541930000   -1.72949805700000
H         0.13537724840000   -0.07934076120000   -1.78999209090000
H         0.40024938080000    1.37840310010000   -2.75257999830000
H         0.68572342990000    2.69443295280000   -0.65141537920000
H         0.34302773080000    1.24801174290000    0.29554728740000
H        -1.58005058680000    2.50521123740000   -1.71353662590000
H        -1.60531049980000    2.80221861580000    0.02375702280000
H        -1.97356145740000    0.34860055230000    0.40828062370000
H        -2.08678305230000    0.11730449030000   -1.33666186800000
H        -3.98535651120000    1.72104819190000   -1.42324601330000
H        -3.90305636020000    1.90952570160000    0.32883923980000
H        -4.27870506130000   -0.56687572470000    0.56938079870000
H        -4.50826570640000   -0.67723284530000   -1.17045914920000
H        -6.19041305210000    0.96530951120000    0.77406057010000
H        -6.64392690170000   -0.59496142160000    0.09013138230000
H        -6.25099953190000    1.98702478900000   -1.48528619470000
H        -7.78877963720000    1.27925152390000   -1.00806616500000
H        -5.77602009120000    0.03852199250000   -2.94077376920000
H        -7.35340071450000    0.71008453930000   -3.33899690340000
H        -7.24286787510000   -0.76345544410000   -2.37494741510000
H         3.23132434460000    2.41132056610000    0.18525340560000
H         4.02551097310000    1.39564792040000    2.95888970770000
H         4.09771788730000    3.12151852670000    2.34272906450000
