  21
        -37.85262911
 C          3.5083807352        1.6243826843       -0.0305179822
 C          2.4319950962        0.5858413409        0.0021966371
 C          2.7497348774       -0.7706428622       -0.0178397593
 C          1.7667649361       -1.7420807309        0.0030795600
 C          0.4160167487       -1.4016461235        0.0499950242
 C         -0.6618911871       -2.4303714609        0.0435067650
 C          0.1219389975       -0.0485636668        0.0762574526
 S         -1.5528721802        0.5116264077        0.1445575651
 O         -2.3471941988       -0.1809154064        1.0991815455
 O         -1.6320520975        1.9271176467        0.0583608004
 F         -2.0527735134       -0.0524760979       -1.3285407170
 C          1.0891365534        0.9344865274        0.0499441237
 H          4.2029997843        1.4772431642        0.7947850309
 H          3.0853517426        2.6219925226        0.0405309763
 H          4.0748973641        1.5509281637       -0.9577555605
 H          3.7881481903       -1.0667677165       -0.0531815776
 H          2.0457219729       -2.7850551340       -0.0187088019
 H         -0.2564846406       -3.4168730383        0.2542742658
 H         -1.1429013571       -2.4547341941       -0.9341887734
 H         -1.4268858430       -2.1820282326        0.7747686927
 H          0.7690314202        1.9640921447        0.0640007199
