  20
        -39.12074800
 C         -4.1606934621       -0.7602274921       -0.2950382286
 C         -2.8416430992       -0.8804355328       -0.3737853504
 C         -1.8705543109        0.1627162165       -0.0604083069
 C         -2.2054790495        1.5113482460        0.0608083764
 C         -1.2491485721        2.4563988048        0.3801106129
 C          0.0682472461        2.0844103082        0.5699392329
 C          0.4574026335        0.7533441868        0.4248562058
 C          1.8603620191        0.3889793680        0.6129272864
 C          2.5335173475       -0.5078052304       -0.0897604723
 F          2.1010097521       -1.2138446323       -1.1195371131
 F          3.8163640233       -0.7869337744        0.1267957417
 C         -0.5298050644       -0.1816685643        0.1247604644
 F         -0.1881229299       -1.4847209075        0.0633135227
 H         -4.8096324932       -1.5820078886       -0.5428975736
 H         -4.6463269066        0.1454304339        0.0263652168
 H         -2.4110362017       -1.8261819220       -0.6744979449
 H         -3.2266068213        1.8174169660       -0.0999020993
 H         -1.5316854689        3.4932411267        0.4805471858
 H          0.8145361895        2.8243553989        0.8153320189
 H          2.4108590752        0.9208689908        1.3739853179
