  39
        -45.47697269
 C         -6.0276737683       -0.7308470736        0.2264047246
 C         -5.4703843589       -0.0489500211       -1.0175704825
 C         -4.7315519979        1.2553064924       -0.7124153390
 C         -3.5012012763        1.1120102636        0.1855416660
 C         -2.3976122514        0.2557530149       -0.4323042151
 C         -1.1387792712        0.1819873673        0.4331760524
 C         -0.3491276971        1.4880538736        0.4675705570
 C          0.9425612777        1.3568571108        1.2844572991
 C          1.8892529235        0.3584934501        0.6917845729
 C          2.0417711675       -0.9605434867        1.2017113332
 C          2.9299890784       -1.7214103995        0.5167925232
 C          3.3366727879       -3.1307078107        0.7626532459
 S          3.6178245619       -0.8209910653       -0.8002583176
 C          2.6791266964        0.5868001073       -0.3939654970
 C          2.8075007592        1.8169492353       -1.2223044512
 H         -6.6347003220       -1.5889769353       -0.0539163763
 H         -6.6503689166       -0.0407824659        0.7921307204
 H         -5.2268513301       -1.0815543571        0.8720670431
 H         -6.2977702352        0.1822626440       -1.6933772576
 H         -4.8060097146       -0.7366152176       -1.5432875139
 H         -5.4304204728        1.9450172986       -0.2315967624
 H         -4.4225737190        1.7078204681       -1.6583810767
 H         -3.7932983353        0.6859877156        1.1469083372
 H         -3.1131615867        2.1143509151        0.3778613249
 H         -2.1359946885        0.6558774126       -1.4150435661
 H         -2.7719437764       -0.7592435686       -0.5771075841
 H         -0.4891983526       -0.6034621667        0.0395809564
 H         -1.4179316579       -0.0996275413        1.4516783007
 H         -0.9573073468        2.2801131250        0.9080526947
 H         -0.0997587242        1.7835947034       -0.5533801427
 H          0.6928741818        1.0481707870        2.3015382324
 H          1.4269348881        2.3354095249        1.3393746360
 H          1.4998185102       -1.3201499099        2.0593378055
 H          2.8063035461       -3.5230807051        1.6272923660
 H          4.4087190586       -3.1959800863        0.9480642100
 H          3.1098145290       -3.7545191766       -0.1019380059
 H          3.8195644949        1.9094835189       -1.6112391509
 H          2.5737607040        2.6995785538       -0.6300760455
 H          2.1235083212        1.7852676163       -2.0721590422
