  25
        -44.38998124
 C          0.9701266197       -3.8519433636       -0.1511908715
 C          1.5045829224       -2.6449366046       -0.0062332022
 C          0.7953665999       -1.3730429685       -0.0160659998
 C         -0.5874548229       -1.2626668999       -0.0047282211
 C         -1.2459733558       -0.0346384970       -0.0221082509
 C         -2.7207342173        0.0414950666        0.0314250125
 O         -3.3609151717        1.0306234268       -0.2520409412
 O         -3.3814793689       -1.0540433946        0.4413678701
 C         -0.4858418112        1.1622767926       -0.0932015530
 N         -1.0910274824        2.3618481810       -0.1214463710
 C          0.9303788308        1.0785327691       -0.0879696779
 C          1.7379114112        2.2996855852       -0.1910657961
 C          2.8432972169        2.5424071895        0.4972786453
 C          1.5188309225       -0.1709241653       -0.0359864767
 F          2.8651979709       -0.2507580706       -0.0603184331
 H          1.5840267199       -4.7350149862       -0.1286361828
 H         -0.0823292261       -4.0187684723       -0.3066552724
 H          2.5751178361       -2.5605467697        0.1240375393
 H         -1.1536959231       -2.1830360394       -0.0132572042
 H         -2.7896536202       -1.7654312343        0.7184353836
 H         -2.1001540379        2.3806683962       -0.1873493537
 H         -0.5520751333        3.2071437377       -0.1104829416
 H          1.3802506606        3.0312939005       -0.9070609339
 H          3.2297861315        1.8497786315        1.2247719463
 H          3.4033545647        3.4509433994        0.3570416905
  25
        -44.38958961
 C          2.2442722050       -3.4505008567        0.0663129917
 C          1.0147049786       -2.9588120828       -0.0394257924
 C          0.5945978306       -1.5646821543       -0.0102053189
 C         -0.7658866386       -1.2768237704       -0.0509124794
 C         -1.2767932139        0.0167277918        0.0063964775
 C         -2.7368744803        0.2551733163       -0.0094611586
 O         -3.2638209854        1.2665690626        0.3965870389
 O         -3.5111442817       -0.7189966399       -0.5156183985
 C         -0.3870713899        1.1152281278        0.1218670851
 N         -0.8531841153        2.3749712851        0.2271508393
 C          1.0058349812        0.8571725763        0.0976144409
 C          2.0096982129        1.9250672179        0.1549491218
 C          1.9616826591        3.0692086628       -0.5145870019
 C          1.4476797292       -0.4554209748        0.0532399980
 F          2.7833770745       -0.6417942353        0.0566585107
 H          2.4105400919       -4.5139250098        0.0319575908
 H          3.1198537365       -2.8405607827        0.1889742804
 H          0.1896112507       -3.6528581007       -0.1541360087
 H         -1.4403853566       -2.1236228942       -0.0751895289
 H         -2.9973426273       -1.4495657218       -0.8836885876
 H         -1.8424518004        2.4805681116        0.4126438357
 H         -0.2122206767        3.1040140966        0.4896475664
 H          2.8746507143        1.7012968189        0.7670013769
 H          1.1633486168        3.3086647002       -1.1974081801
 H          2.7544312206        3.7933239501       -0.4347665401
  25
        -44.38929939
 C          2.2516250873       -3.4421132912       -0.0722244615
 C          1.0253886244       -2.9460296701       -0.1948609510
 C          0.5971660328       -1.5585716617       -0.0809775606
 C         -0.7618848847       -1.2728928027       -0.1429902534
 C         -1.2831725951        0.0153046164       -0.0392662009
 C         -2.7407964472        0.2526926726       -0.0134326705
 O         -3.2555531087        1.3415567589       -0.1497300602
 O         -3.5376418136       -0.8058597225        0.2110957151
 C         -0.3935489068        1.1176683473        0.0645050611
 N         -0.8539950984        2.3784127553        0.1191407854
 C          0.9986614635        0.8562992644        0.1279028877
 C          1.9983279354        1.9237732693        0.2517141783
 C          2.0081504609        3.0592550647       -0.4335893809
 C          1.4435224827       -0.4537055419        0.0848896563
 F          2.7766237575       -0.6409572096        0.1658996160
 H          2.4245492935       -4.4996437944       -0.1791784808
 H          3.1178747247       -2.8417839408        0.1348924882
 H          0.2100149870       -3.6308633007       -0.3995845800
 H         -1.4231571534       -2.1147801384       -0.3068953588
 H         -3.0442599494       -1.6185668070        0.3804432121
 H         -1.8577378696        2.5093955949        0.1165341876
 H         -0.2299477445        3.1192552979        0.3876345697
 H          2.8106801840        1.7051553024        0.9339523933
 H          1.2692510830        3.2909145506       -1.1828456866
 H          2.7942061224        3.7826581380       -0.2992023634
  25
        -44.38880752
 C          2.3517335614       -3.2503473087        0.2000259260
 C          1.0980856401       -2.8379509748        0.0491979245
 C          0.6001136290       -1.4698142516       -0.0050956869
 C         -0.7734491746       -1.2601626672        0.0257762218
 C         -1.3560616799        0.0052275129        0.0047285800
 C         -2.8240201333        0.1732036661        0.0343257548
 O         -3.3833985106        1.2075400860        0.3255874491
 O         -3.5727919017       -0.8914575724       -0.2984168834
 C         -0.5184406867        1.1484234795       -0.0172354358
 N         -1.0374402541        2.3897548014        0.0203434771
 C          0.8844775640        0.9652597347       -0.1073859607
 C          1.7599896757        2.1362707427       -0.2419617167
 C          2.9129213856        2.3048365933        0.3879008733
 C          1.3981184234       -0.3194149756       -0.0984374591
 F          2.7321681007       -0.4580191334       -0.2229637205
 H          2.5795710118       -4.3023804694        0.2319899280
 H          3.1884438427       -2.5837594346        0.2974895782
 H          0.3150487239       -3.5840364435       -0.0275933276
 H         -1.3953878875       -2.1418771563        0.1177388724
 H         -3.0421314213       -1.6451062890       -0.5872197681
 H         -2.0324383467        2.4732638342        0.1832425599
 H         -0.4340839781        3.1840981855        0.1255972353
 H          1.4056382062        2.8970771625       -0.9283778830
 H          3.2963163059        1.5811080549        1.0861449363
 H          3.5172557484        3.1810352126        0.2269306515
  25
        -44.38867462
 C          2.3421775184       -3.2629710567        0.0949944696
 C          1.0986228828       -2.8391713367       -0.0994478059
 C          0.6010757667       -1.4697007695       -0.0749103446
 C         -0.7725025282       -1.2606924835       -0.0561836236
 C         -1.3561804105        0.0043453489       -0.0297727410
 C         -2.8223131594        0.1746999465        0.0282996984
 O         -3.3938343242        1.2183682550       -0.2019198714
 O         -3.5578548686       -0.8939161815        0.3776188558
 C         -0.5186137971        1.1488545070       -0.0659612261
 N         -1.0390545301        2.3876330223       -0.0384521971
 C          0.8872570972        0.9667449603       -0.0909889337
 C          1.7705203554        2.1365466547       -0.1799157030
 C          2.8889430737        2.3009978233        0.5099422670
 C          1.4015345294       -0.3175140257       -0.0837618560
 F          2.7398575990       -0.4528157879       -0.1530781720
 H          2.5726616727       -4.3141948529        0.0576910669
 H          3.1678055165       -2.6061919898        0.2970196312
 H          0.3240512857       -3.5753527780       -0.2826928308
 H         -1.3946627042       -2.1462813188       -0.0936386175
 H         -3.0184717130       -1.6599567916        0.6119145966
 H         -2.0448409562        2.4783322366       -0.0947688886
 H         -0.4415400160        3.1925066322       -0.0200334157
 H          1.4573433880        2.8986054071       -0.8849512356
 H          3.2318885270        1.5752351268        1.2268940276
 H          3.5043212771        3.1748587508        0.3818361774
  25
        -44.38412509
 C          0.9578943601       -3.8577278510        0.1760681375
 C          1.5000575962       -2.6636654381       -0.0294964662
 C          0.7912544548       -1.3904570261       -0.0243199486
 C         -0.5919420970       -1.2775182790        0.0451520917
 C         -1.2331932780       -0.0460878690        0.0315225334
 C         -2.7215503637       -0.0722258245        0.0396877357
 O         -3.3651179312       -0.9073415455        0.6123448109
 O         -3.3370912517        0.8946471424       -0.6765459349
 C         -0.4846762265        1.1435548952        0.0113905072
 N         -1.1011041378        2.3828577843        0.0680849488
 C          0.9182806046        1.0655572312       -0.0866022930
 C          1.7233680673        2.2900763490       -0.1910067797
 C          2.8611342921        2.5049673026        0.4521287873
 C          1.5077329248       -0.1914872771       -0.1096874350
 F          2.8495539273       -0.2621171241       -0.2332139440
 H          1.5593054647       -4.7498336400        0.1574970940
 H         -0.0904645205       -3.9971152396        0.3754656087
 H          2.5643606471       -2.5887256732       -0.2094242711
 H         -1.2108547281       -2.1585588136        0.0925088565
 H         -2.7078277890        1.4465435945       -1.1628849646
 H         -1.9805780574        2.4174600978        0.5626115816
 H         -0.4865672400        3.1447309455        0.3115837386
 H          1.3303111993        3.0453294707       -0.8620231065
 H          3.2799355104        1.7835240021        1.1322615822
 H          3.4169103361        3.4172814969        0.3194592981
  25
        -44.38281628
 C          2.3352500945       -3.2697618218       -0.3390029516
 C          1.0782784070       -2.8534543497       -0.2354602656
 C          0.5902890252       -1.4859131916       -0.1082163218
 C         -0.7827631170       -1.2635306770       -0.1607938020
 C         -1.3444095276        0.0002912893       -0.0437779634
 C         -2.8306288599        0.0762558272       -0.0537459558
 O         -3.5270894516       -0.6613072227       -0.6942056413
 O         -3.3816940611        1.0203809738        0.7413550459
 C         -0.5151740107        1.1279103443        0.0754140888
 N         -1.0399192179        2.4087806780        0.1255544926
 C          0.8770464748        0.9390539339        0.1648377129
 C          1.7629065316        2.0931473206        0.3760861386
 C          2.9024932331        2.3001515194       -0.2659089941
 C          1.3872271044       -0.3510121297        0.0790617176
 F          2.7204012482       -0.4933193460        0.2129883212
 H          2.5554178957       -4.3194468334       -0.4362299093
 H          3.1832233635       -2.6098224214       -0.3339385812
 H          0.2818247564       -3.5871422584       -0.2606538836
 H         -1.4558787367       -2.0978605609       -0.2886255836
 H         -2.7186688590        1.4837244744        1.2730904043
 H         -1.9134815883        2.5485990525       -0.3608064858
 H         -0.3708715046        3.1419435700       -0.0541674821
 H          1.4280137914        2.7999510773        1.1268025595
 H          3.2635471615        1.6257246645       -1.0232252373
 H          3.5181867831        3.1575419233       -0.0546854165
  25
        -44.38243575
 C          2.3170830987       -3.2930912241       -0.1617550446
 C          1.0728650161       -2.8665702032        0.0216239987
 C          0.5885451626       -1.4918624512        0.0495741685
 C         -0.7865389385       -1.2721142477        0.0589669836
 C         -1.3431256756       -0.0015991591        0.0633216493
 C         -2.8286755478        0.0760168547       -0.0118739875
 O         -3.5580015863       -0.7276810144        0.4995653770
 O         -3.3344791686        1.0996619319       -0.7329755185
 C         -0.5124214014        1.1300745933        0.1286319149
 N         -1.0453080578        2.4088411972        0.1222443210
 C          0.8823518406        0.9462554807        0.1323894255
 C          1.7854773152        2.1013903159        0.2392226139
 C          2.8627704755        2.2902837060       -0.5060764338
 C          1.3911468081       -0.3471679028        0.0760785663
 F          2.7316345912       -0.4795336540        0.1108430730
 H          2.5371925174       -4.3472604691       -0.1666352150
 H          3.1541700114       -2.6368946726       -0.3145186302
 H          0.2842841208       -3.5968647039        0.1554249275
 H         -1.4628188721       -2.1134960609        0.0422178072
 H         -2.6404026002        1.6249641452       -1.1576985151
 H         -1.9236425798        2.5267940549        0.6065441974
 H         -0.3819537628        3.1427339896        0.3196979517
 H          1.5305582567        2.8255126227        1.0065142229
 H          3.1479213587        1.6006814865       -1.2816373726
 H          3.5002260729        3.1462750500       -0.3666667433
