19
 energy: -35.165336009356 gnorm: 0.000079955027 xtb: 6.4.1 (23d549d)
C        -1.12656762960000   -2.64262817720000    0.51067159730000
C        -1.84634636820000   -1.71074885190000   -0.10001832580000
C        -1.54029670830000   -0.28171545100000   -0.14005949510000
N        -2.61156111600000    0.50519577080000   -0.10031082140000
C        -2.46127590300000    1.81225204590000   -0.05265587450000
C        -1.21856183920000    2.43077903600000   -0.04620185550000
C        -0.09507473760000    1.63196993650000   -0.14784402570000
C        -0.23303464910000    0.24441330490000   -0.20694336970000
C         0.91581446630000   -0.62689777930000   -0.41271431470000
C         2.15427730190000   -0.39438206780000   -0.00795879670000
F         2.58649606450000    0.63817463380000    0.70836560130000
F         3.17415213490000   -1.21695819450000   -0.24482650640000
H        -1.44294873680000   -3.67175930160000    0.52678780650000
H        -0.21887453080000   -2.41594209560000    1.04487078090000
H        -2.79427621850000   -1.96354766000000   -0.55515939170000
H        -3.37776646680000    2.38659727420000   -0.02103995570000
H        -1.13340257520000    3.50442435890000    0.00843430050000
H         0.88502834840000    2.08054450380000   -0.20344831280000
H         0.74918021470000   -1.54921024100000   -0.94941146060000
