  18
        -39.11445111
 C          1.4813374877        2.5311000714       -0.0000426165
 C          0.7498088325        1.2265760520        0.0000140320
 C          1.4021055890       -0.0011506507        0.0000023434
 F          2.7493880910       -0.0022578689        0.0000102646
 C          0.7477942629       -1.2278098877       -0.0000041630
 C          1.4771834468       -2.5335306125        0.0000239717
 C         -0.6425069444       -1.1958406896       -0.0000090911
 F         -1.3174449763       -2.3554081486       -0.0000277282
 C         -1.3467392902        0.0011088303       -0.0000015216
 F         -2.6856205055        0.0021912744       -0.0000016767
 C         -0.6405482534        1.1968972628        0.0000067725
 F         -1.3135618360        2.3575820549        0.0000353157
 H          2.5547801930        2.3701014418        0.0017199967
 H          1.2043488621        3.1133249946        0.8774593009
 H          1.2070974934        3.1116719303       -0.8795176133
 H          2.5508896980       -2.3742907609       -0.0006165390
 H          1.2001168610       -3.1147824484       -0.8781035257
 H          1.2011153111       -3.1141717202        0.8788759022
