  17
        -32.83352430
 C         -2.2222493945       -2.2511641068       -0.5062178338
 C         -1.2658554168       -1.5488325030        0.0883867217
 C         -1.1672424095       -0.1012859040        0.0619285691
 C         -2.2776332171        0.7676812862       -0.1210792048
 C         -1.9627437123        2.0784563520        0.0019494877
 S         -0.2973158292        2.3193408565        0.3456289068
 C         -0.0076448468        0.6039454948        0.3127411866
 C          1.3445520477        0.1476959955        0.5153637703
 C          1.9225239742       -0.9001238884       -0.0572939271
 F          1.3960257782       -1.7287067859       -0.9498260387
 F          3.1809951535       -1.2608871736        0.1860341796
 H         -2.2547657776       -3.3241468161       -0.4360840541
 H         -2.9912478970       -1.7870403370       -1.0999647469
 H         -0.4960716296       -2.0584901947        0.6522648930
 H         -3.2746511579        0.4149348076       -0.3111062066
 H         -2.6087179471        2.9295316078       -0.0844303098
 H          1.9750783182        0.7457399614        1.1576433761
