  82
        -97.86654296
 C         -3.5133742106        5.1084696036        0.6002882077
 C         -2.2354800571        4.7506413474        0.6598527650
 C         -1.7161062418        3.3911595146        0.6911805057
 C         -2.5278450922        2.2973352009        0.9822652412
 C         -2.0352794056        1.0035845284        1.0272341536
 O         -2.7788799226       -0.1019896837        1.3313005955
 C         -4.1855965386       -0.0077946366        1.3779314319
 C         -4.8381005455        0.1947710933        0.0057561295
 C         -4.8655850241       -1.0744115752       -0.8462732141
 C         -3.4725387099       -1.5752751434       -1.2206922256
 C         -3.5417932986       -2.8003098980       -2.1284493967
 C         -2.1660486397       -3.3089441144       -2.5620791200
 C         -1.2698598641       -3.7897538180       -1.4192229153
 C         -1.8603911547       -4.9693686515       -0.6487673866
 C         -0.8720957663       -5.6013706213        0.3323686812
 C         -0.5379400853       -4.6936081795        1.5102594346
 C         -0.6725350179        0.7810540479        0.7542028507
 C         -0.1351767683       -0.5722705323        0.8062156950
 C          0.9609960514       -0.9969784877        0.1885194117
 C          0.1410103065        1.8742444703        0.4694992968
 C         -0.3465762291        3.1701861792        0.4424699419
 O          0.4137668741        4.2813705760        0.2036822650
 C          1.7936265597        4.1409263794       -0.0547842921
 C          2.0835737598        3.7200751181       -1.5005579614
 C          3.5208622261        3.2316072848       -1.6942263506
 C          3.7103222253        1.7937236369       -1.2144126097
 C          5.1377061999        1.2858985462       -1.4060775096
 C          5.2607468809       -0.2202867791       -1.1670451450
 C          4.9581728293       -0.6397256411        0.2703124100
 C          5.0807922803       -2.1498716500        0.4582405679
 C          4.7143513658       -2.5815265026        1.8762270092
 C          4.8000545346       -4.0928030082        2.0502168795
 H         -3.8015473930        6.1453979838        0.5801054188
 H         -4.3212147909        4.3972645656        0.5579259636
 H         -1.4711136838        5.5150419003        0.6658556564
 H         -3.5647608451        2.4896792709        1.2015035853
 H         -4.4929183345        0.7890531747        2.0679715200
 H         -4.5060336346       -0.9634763924        1.8033166203
 H         -4.2990132851        0.9769158153       -0.5328699615
 H         -5.8625515092        0.5378782001        0.1669580163
 H         -5.4295175684       -0.8650803977       -1.7593136736
 H         -5.3988888388       -1.8598093673       -0.3042293061
 H         -2.9272959072       -1.8219207361       -0.3113539306
 H         -2.9250995407       -0.7775560773       -1.7293897425
 H         -4.1107812375       -2.5435121118       -3.0265699585
 H         -4.0853825470       -3.5989356987       -1.6204152178
 H         -1.6479605643       -2.5057253766       -3.0924827819
 H         -2.3083456313       -4.1316955658       -3.2682274384
 H         -1.0742132132       -2.9592904946       -0.7419079935
 H         -0.3114894832       -4.0962679145       -1.8475747982
 H         -2.1782641112       -5.7318457538       -1.3651716175
 H         -2.7427145798       -4.6446902159       -0.0947852176
 H          0.0471551619       -5.8622820023       -0.1978430739
 H         -1.3049450539       -6.5292670361        0.7151359893
 H         -0.0345674567       -3.7913882550        1.1754813945
 H          0.1160730578       -5.2074208635        2.2117784146
 H         -1.4452751423       -4.4049936952        2.0369058214
 H         -0.7221262119       -1.2626391029        1.3969482740
 H          1.5525493422       -0.3589808068       -0.4455136628
 H          1.3057276986       -2.0130066465        0.2796040198
 H          1.1835678275        1.6789693911        0.2884656554
 H          2.2493218266        3.4455401263        0.6594109781
 H          2.2115727667        5.1347867658        0.1319667975
 H          1.8880444389        4.5742186945       -2.1511459207
 H          1.3876932884        2.9281528261       -1.7866954892
 H          4.2066509172        3.8941125926       -1.1612306787
 H          3.7716558089        3.2819538391       -2.7559235397
 H          3.0288070047        1.1475220895       -1.7742461861
 H          3.4525764828        1.7275467953       -0.1567162256
 H          5.8089732647        1.8204986246       -0.7302754282
 H          5.4565785216        1.5032229565       -2.4286203648
 H          6.2764751532       -0.5348368534       -1.4190792373
 H          4.5790998154       -0.7434255671       -1.8426331493
 H          3.9438471834       -0.3415192129        0.5394870969
 H          5.6462639575       -0.1304989503        0.9493969145
 H          6.1030270548       -2.4649578681        0.2353224485
 H          4.4191031788       -2.6532315234       -0.2510939090
 H          3.6986592195       -2.2478323496        2.1021625807
 H          5.3869093301       -2.0951937871        2.5866430125
 H          4.1178875410       -4.5944301472        1.3670180632
 H          4.5378970808       -4.3773641778        3.0666390709
 H          5.8088837416       -4.4444617427        1.8445273465
