  41
        -72.31027922
 C          0.6614847415       -4.3854190155        1.9434697552
 O          1.6472013273       -4.3275932650        0.9398928463
 C          1.8890938908       -3.1386709600        0.3299264141
 C          1.2370855077       -1.9498551180        0.6317508416
 C          1.5391585649       -0.7878214193       -0.0733838259
 N          0.8770966244        0.4229374438        0.2172697953
 C          1.7468871665        1.5072703867        0.4579822736
 C          2.7848347002        1.7687024148       -0.4352128786
 S          3.0097345474        0.7052359231       -1.8358718257
 C          3.6442813191        2.8359497323       -0.2268747900
 C          3.4833991693        3.6408463275        0.8856924828
 C          2.4888150542        3.3559625863        1.8077156873
 C          1.6336247109        2.2883036269        1.6035254377
 C         -0.4956790633        0.5646804616        0.1401020034
 C         -1.1107679777        1.8061438449        0.3425947750
 C         -2.4779305554        1.9369763366        0.2624895732
 C         -3.3036434194        0.8489710632       -0.0316051272
 C         -4.7376720948        1.0563732073       -0.0742094696
 C         -5.6956958834        0.1629975620       -0.2769949674
 F         -5.5673880279       -1.1446561292       -0.4886816699
 F         -6.9939747303        0.4746560676       -0.2907768563
 C         -2.6839370660       -0.3751862595       -0.2928797183
 C         -1.3165385988       -0.5123689473       -0.2172336511
 C          2.5530254627       -0.8046151997       -1.0241230413
 C          3.2145917817       -1.9887581537       -1.3181861554
 C          2.8736480238       -3.1502091181       -0.6629176314
 H          0.6363900427       -5.4234945968        2.2702969784
 H         -0.3235376141       -4.1045584324        1.5572976310
 H          0.9158660662       -3.7451423371        2.7941534808
 H          0.4866031417       -1.8980925553        1.4043276001
 H          4.4282076576        3.0269184212       -0.9431120571
 H          4.1453125043        4.4784995386        1.0419462928
 H          2.3798410636        3.9640515408        2.6927717400
 H          0.8673684329        2.0538878267        2.3272686007
 H         -0.5125265059        2.6813966209        0.5399906528
 H         -2.9206087677        2.9084532122        0.4282241050
 H         -5.0830635523        2.0678391437        0.0855476971
 H         -3.2725637411       -1.2340697481       -0.5708095868
 H         -0.8763631035       -1.4647773247       -0.4665837908
 H          3.9877684064       -1.9881611080       -2.0701300788
 H          3.3665748409       -4.0817144320       -0.8872628949
