  21
        -30.12341811
 C         -3.7577099295       -0.7971655401        0.2964508318
 C         -2.9698356955        0.2308199586        0.0074492025
 C         -1.5151264139        0.2056230093       -0.0550062042
 C         -0.7332783085       -0.9500068154        0.0646133534
 C          0.6435050526       -0.8410589510        0.0111762453
 C          1.4972009183       -2.0664148984        0.0718925569
 C          1.1552340287        0.4650900840       -0.1523492434
 C          2.5694201443        0.8276943437       -0.1968202589
 C          3.5540030986        0.2672717590        0.4926076143
 N          0.3398692828        1.5050715816       -0.3238951284
 N         -0.9408544386        1.3889719978       -0.2748951334
 H         -4.8281697846       -0.6891997492        0.3267800070
 H         -3.3783757856       -1.7808973084        0.5178141716
 H         -3.3882514934        1.2065111407       -0.1974005380
 H         -1.1955243843       -1.9202391434        0.1731186648
 H          0.9409257536       -2.9273478677       -0.2950679698
 H          1.7887758189       -2.2726689093        1.1017593378
 H          2.3994410830       -1.9410643469       -0.5221246886
 H          2.7651749713        1.6939378154       -0.8145841932
 H          3.4013753067       -0.5488263537        1.1768734368
 H          4.5623797773        0.6382767311        0.4188980799
