22
 energy: -29.881625182565 gnorm: 0.000042588294 xtb: 6.4.1 (23d549d)
C        -3.80384486720000    0.99837469730000   -0.06314860020000
C        -2.93150174640000   -0.00216863610000   -0.06376958440000
C        -1.47957316870000    0.11234282860000   -0.01061581240000
C        -0.78821473970000    1.32454467060000    0.03942282700000
C         0.58961047520000    1.29967924130000    0.10172127090000
C         1.27158201340000    0.08251540930000    0.10406155370000
C         2.72650648450000    0.01977703240000    0.17414139920000
C         3.54815321570000    0.95003590500000   -0.29571054840000
C         0.48838162380000   -1.08542063150000    0.04254679280000
C         1.10298208980000   -2.45181794660000    0.01457976460000
N        -0.82846836320000   -1.05174311540000   -0.01062550820000
H        -4.86398902690000    0.81580718020000   -0.10549885580000
H        -3.50666567380000    2.03264596040000   -0.02069463200000
H        -3.27635582590000   -1.02649533230000   -0.10586921680000
H        -1.31709161250000    2.26407967430000    0.03953260770000
H         1.14555007090000    2.22383060010000    0.16990056780000
H         3.13828878030000   -0.86846724100000    0.63444818790000
H         3.19032336500000    1.83524212640000   -0.79454737690000
H         4.61711306580000    0.85075480960000   -0.21521307760000
H         1.81729731140000   -2.53666350110000   -0.80232352440000
H         0.31602075490000   -3.18876300580000   -0.11657334600000
H         1.62388855250000   -2.65658684650000    0.94934589080000
