  22
        -29.45446456
 C          3.2740759440       -0.0348120484       -0.0023639802
 O          2.1854789813       -0.9231708470        0.0016550252
 C          0.9218928925       -0.4047308176        0.0011209583
 C         -0.1122238626       -1.3418478325        0.0027319972
 C         -1.4322960377       -0.9363714369        0.0018611892
 C         -2.5478552656       -1.9379294962       -0.0018699430
 C         -1.7210416484        0.4258710653       -0.0008973981
 C         -0.7086444443        1.3677046088       -0.0024350914
 C         -1.0146948790        2.8361609520        0.0016073987
 C          0.6188221981        0.9479659210       -0.0012004793
 H          4.1659385240       -0.6598872905       -0.0029695275
 H          3.2797255562        0.6005180930        0.8897665578
 H          3.2759526099        0.5968103172       -0.8971386172
 H          0.1498075004       -2.3884349942        0.0043767588
 H         -2.1613777587       -2.9512646732        0.0655356507
 H         -3.1312276679       -1.8487239201       -0.9177746960
 H         -3.2188686370       -1.7622607143        0.8377246211
 H         -2.7527118400        0.7475170075       -0.0019457757
 H         -2.0839610172        3.0107257546       -0.0842726986
 H         -0.5123290180        3.3335581183       -0.8268768535
 H         -0.6632452775        3.2930395776        0.9264841525
 H          1.3972820806        1.6953404600       -0.0019574232
  22
        -29.45432326
 C          2.9249526079       -1.4740266223       -0.0008566717
 O          2.3655564149       -0.1850496573        0.0007006616
 C          1.0049009314       -0.0641153351        0.0004055648
 C          0.1136606859       -1.1307458826        0.0000361918
 C         -1.2542000332       -0.8961105345       -0.0001767282
 C         -2.2243685848       -2.0401563271       -0.0005286706
 C         -1.7246299004        0.4093014017       -0.0001830946
 C         -0.8475507742        1.4845084411        0.0001308877
 C         -1.3514062059        2.8967737480        0.0001440545
 C          0.5156921678        1.2388668520        0.0005024140
 H          4.0041821139       -1.3276302223       -0.0005647711
 H          2.6381455933       -2.0375026361       -0.8951940178
 H          2.6380204432       -2.0398253749        0.8919661532
 H          0.4684047885       -2.1498753308       -0.0000756337
 H         -1.7058368766       -2.9955736891        0.0010497919
 H         -2.8637509002       -1.9935930720       -0.8812367235
 H         -2.8663121623       -1.9920175582        0.8782156140
 H         -2.7906389121        0.5867036056       -0.0004405994
 H         -2.4380338888        2.9227994675       -0.0025825170
 H         -0.9877534145        3.4283761181       -0.8780531313
 H         -0.9922999747        3.4266822414        0.8812515074
 H          1.2240589255        2.0526622663        0.0008109167
