24
 energy: -37.672955608638 gnorm: 0.000046406866 xtb: 6.4.1 (23d549d)
C         4.03355576100000    0.54405582530000    0.16869277200000
C         3.28462530950000   -0.51942495480000   -0.10358771570000
C         1.84432323770000   -0.55019099190000   -0.08584298660000
N         1.16553788140000   -1.72150564530000   -0.01517419460000
N        -0.15951561960000   -1.55870055820000    0.01460372090000
C        -0.36027956920000   -0.25054490240000   -0.04106182230000
N        -1.59634672470000    0.34990975510000   -0.09315732280000
C        -2.85655993930000   -0.18288990680000   -0.01069326990000
C        -2.94187907450000   -1.66015443800000    0.23228884170000
O        -3.81513101710000    0.54975736490000   -0.12514771730000
C         0.87569793940000    0.45396575820000   -0.10449666080000
C         1.07238859390000    1.88282587930000   -0.24497992810000
C         0.35036017610000    2.81819993480000    0.36073950390000
H         5.10772996230000    0.49540127670000    0.12875902280000
H         3.60179254200000    1.48668978520000    0.45480357480000
H         3.75552549070000   -1.46468179530000   -0.34706742350000
H         1.55107152950000   -2.64909645150000    0.05535059260000
H        -1.56905207210000    1.34947800220000   -0.26377681780000
H        -2.48168762220000   -2.19307276760000   -0.59543999210000
H        -3.98542259480000   -1.94516954010000    0.32934624970000
H        -2.39260139450000   -1.92101964320000    1.13271355180000
H         1.87764964310000    2.16998558990000   -0.91106346610000
H        -0.42213977630000    2.58230939360000    1.07410490490000
H         0.53625035340000    3.86514060180000    0.19290881340000
