  21
        -30.95784652
 C          3.0168850268       -2.4231145379        0.1303934478
 C          2.7027736188       -1.1448526324       -0.0377628636
 C          1.3603220315       -0.5718898308       -0.0346556778
 C          1.2246883150        0.8146743745       -0.0320485358
 C         -0.0419158708        1.3934542905       -0.0266053992
 C         -0.1670234629        2.8029831551       -0.0273591232
 N         -0.2683610357        3.9448373735       -0.0283353376
 C         -1.1866769359        0.6020749814       -0.0247588859
 C         -1.0707442754       -0.7863205786       -0.0303614500
 C         -2.2314638021       -1.6716304033       -0.0319539060
 C         -3.4957054077       -1.3149391086        0.1559930950
 C          0.2041758850       -1.3505769333       -0.0411475911
 H          4.0416230111       -2.7519873547        0.1171681766
 H          2.2799988457       -3.1907268400        0.2940899642
 H          3.4973668514       -0.4225859338       -0.1794039857
 H          2.0998249580        1.4486418014       -0.0329919951
 H         -2.1549522880        1.0774956165       -0.0315589690
 H         -1.9980022332       -2.7173702436       -0.1907315976
 H         -3.7961828964       -0.2970565861        0.3364184701
 H         -4.2885619810       -2.0427748366        0.1428567663
 H          0.2907108961       -2.4265401261       -0.0588925803
