24
 energy: -33.659617014320 gnorm: 0.000033209558 xtb: 6.4.1 (23d549d)
C        -3.61833826120000    0.33559036260000    0.07580942290000
C        -2.45300352390000   -0.10621947710000    0.52867748160000
C        -1.15624557670000    0.50360199680000    0.23328489680000
C        -1.06412170930000    1.87445511110000    0.01768184110000
C         0.14789361890000    2.45332358300000   -0.30752878510000
C         1.28234783100000    1.67401120780000   -0.37877017810000
C         1.22297723970000    0.29999295000000   -0.13934677250000
O         2.43810525710000   -0.32498000470000   -0.21082086230000
C         2.69779164740000   -1.49288065370000    0.53057131640000
C        -0.00702498760000   -0.30428183310000    0.14264389630000
C        -0.17113039570000   -1.76594812280000    0.25389958690000
C         0.04342888380000   -2.59601438710000   -0.75344892600000
H        -4.54402999420000   -0.15036706300000    0.33313461210000
H        -3.69419090250000    1.18430847400000   -0.58273769730000
H        -2.43392265170000   -0.98991465620000    1.15263175260000
H        -1.94798607520000    2.48571273340000    0.11236602810000
H         0.21205659320000    3.51582296000000   -0.48843621730000
H         2.24465619430000    2.10181565030000   -0.61204871780000
H         3.76482057570000   -1.46797043280000    0.75978006990000
H         2.47539713080000   -2.39534232300000   -0.04626626140000
H         2.12952250220000   -1.51615355300000    1.46325815840000
H        -0.52692619490000   -2.14629921410000    1.20506823010000
H         0.37472252520000   -2.23907459870000   -1.71511590570000
H        -0.10718922330000   -3.65857300190000   -0.65983255500000
