  30
        -34.88810171
 C          3.5648919577       -0.8283810304        0.6425695522
 C          2.7951056537       -0.4767383883       -0.6322691682
 C          1.3503322412       -0.1945341757       -0.3217603803
 C          0.4530534364       -1.2520679562       -0.2842216219
 C         -0.8881296862       -1.0881717278        0.0283743190
 C         -1.7968241826       -2.2824810272        0.0559692247
 C         -1.3502546738        0.1949788015        0.3219155052
 C         -2.7950896688        0.4770514582        0.6322301153
 C         -3.5651675272        0.8265725154       -0.6430173677
 C         -0.4529687800        1.2524975723        0.2844422030
 C          0.8882158388        1.0886038024       -0.0282098015
 C          1.7968878574        2.2829345241       -0.0559088124
 H          4.6081982526       -1.0356150648        0.4139485172
 H          3.1307243820       -1.7075056420        1.1134994460
 H          3.5230141704       -0.0083323622        1.3557032540
 H          2.8571281791       -1.3192321460       -1.3250420305
 H          3.2605397512        0.3852658562       -1.1111028755
 H          0.8171359912       -2.2452620124       -0.5121762189
 H         -1.2609704895       -3.1748031439       -0.2586920227
 H         -2.6494447948       -2.1423949946       -0.6060543062
 H         -2.1779506414       -2.4517474886        1.0632664990
 H         -2.8573950724        1.3205088020        1.3237974483
 H         -3.2600896872       -0.3844823103        1.1123537068
 H         -3.1315597860        1.7053583585       -1.1150991433
 H         -4.6085916699        1.0334398851       -0.4146065563
 H         -3.5228247594        0.0056473274       -1.3551106468
 H         -0.8170345272        2.2456906819        0.5124309980
 H          1.2610581134        3.1752420352        0.2588332473
 H          2.1778152589        2.4522146629       -1.0632831976
 H          2.6496220920        2.1428571172        0.6059781312
