  26
        -41.23617046
 C         -4.5272976244       -0.4347366309        0.5604758899
 C         -3.6467165566        0.3310153864       -0.0703329118
 C         -2.2043845083        0.0996729095       -0.0968755225
 C         -1.6974795658       -1.1972554366       -0.0530805829
 C         -0.3422928140       -1.4717532512       -0.0853959037
 C          0.1283002491       -2.8947954538       -0.0272978592
 C          0.5584434348       -0.3974182507       -0.1617472135
 C          1.9905058442       -0.6563016540       -0.2110778106
 C          2.9755486363        0.1832885463        0.0681916782
 F          2.8921898303        1.4444638900        0.4792073983
 F          4.2643271711       -0.1547391415       -0.0152054448
 C          0.0528128045        0.9017703544       -0.2105290391
 C         -1.3035331184        1.1708896994       -0.1824332768
 C         -1.7822220335        2.5910294108       -0.2240840128
 H         -5.5814436899       -0.2165454783        0.5405356609
 H         -4.2316539724       -1.2949728875        1.1374765713
 H         -3.9938480536        1.2058907524       -0.6037910991
 H         -2.3944177253       -2.0215493975       -0.0114727834
 H         -0.7175078073       -3.5668024377        0.0933650625
 H          0.8086610459       -3.0455802533        0.8094788563
 H          0.6491966270       -3.1688283570       -0.9447555334
 H          2.3093403278       -1.6464619825       -0.4984095017
 H          0.7380820059        1.7312828226       -0.2856205841
 H         -0.9404628907        3.2774222318       -0.1828092988
 H         -2.4424675356        2.7996242859        0.6161663323
 H         -2.3350470450        2.7834552372       -1.1438415137
  26
        -41.23616491
 C         -4.5813024933       -0.4804236509       -0.1992573913
 C         -3.6351349197        0.3470826307        0.2247163750
 C         -2.1988416497        0.1095652384        0.1015736745
 C         -1.6923517730       -1.1876242670        0.1435916831
 C         -0.3416905525       -1.4665120441        0.0394136627
 C          0.1306217939       -2.8884043164        0.1100996086
 C          0.5548893787       -0.3965591449       -0.1105131099
 C          1.9815666032       -0.6604314863       -0.2351680974
 C          2.9816145412        0.1807092539       -0.0219006645
 F          2.9218630885        1.4471264846        0.3767282373
 F          4.2634435075       -0.1600338718       -0.1725418045
 C          0.0498879032        0.9030333863       -0.1538707869
 C         -1.3016599645        1.1769249039       -0.0479103394
 C         -1.7823256964        2.5951452838       -0.1197068872
 H         -5.6264466733       -0.2532294029       -0.0757768845
 H         -4.3530693358       -1.4047889773       -0.7030175610
 H         -3.9202667252        1.2809965793        0.6905349702
 H         -2.3830856095       -2.0060527462        0.2846964675
 H         -0.7067564176       -3.5546636422        0.3009492344
 H          0.8601985624       -3.0170000373        0.9081724494
 H          0.5951161204       -3.1894781044       -0.8289418247
 H          2.2819925715       -1.6550053486       -0.5269147514
 H          0.7309416170        1.7284995698       -0.2886526653
 H         -0.9549072230        3.2670214788       -0.3326565006
 H         -2.2302804138        2.8967625105        0.8271917145
 H         -2.5337627838        2.7088755078       -0.8995671838
  26
        -41.23419357
 C         -4.4835230429        0.7207855029       -0.4201599794
 C         -3.6689511552       -0.0777256680        0.2551786240
 C         -2.2107830833       -0.1327669330        0.1391987379
 C         -1.6194394205       -1.3967536404        0.1629645206
 C         -0.2585749890       -1.5948537855        0.0299579933
 C          0.2988875038       -2.9867718584        0.0581960542
 C          0.5685651087       -0.4677066555       -0.1066755461
 C          2.0063414924       -0.6407849328       -0.2618433849
 C          2.9587028798        0.2528772785       -0.0446394428
 F          2.8324671778        1.5033316715        0.3876265852
 F          4.2552466970       -0.0074617046       -0.2267708121
 C         -0.0159866247        0.7965430013       -0.0954419141
 C         -1.3834617128        0.9906632452        0.0232827779
 C         -1.9055666262        2.3952932303        0.0589969418
 H         -5.5517248242        0.6686734667       -0.2915887034
 H         -4.1272977802        1.4310329693       -1.1451577035
 H         -4.0922101775       -0.8149085184        0.9280296157
 H         -2.2629251746       -2.2590966252        0.2735528700
 H         -0.4936919813       -3.7066961049        0.2454362135
 H          1.0486541139       -3.0897679804        0.8411608087
 H          0.7641543817       -3.2369481244       -0.8952626540
 H          2.3598193605       -1.6078862924       -0.5850769523
 H          0.6117686163        1.6681164336       -0.1944298022
 H         -1.1590961992        3.0591790830        0.4899022413
 H         -2.8185700421        2.4590565720        0.6457103316
 H         -2.1208244864        2.7492489092       -0.9492204849
  26
        -41.23396346
 C         -4.3044841813       -0.5677772195        0.9772162442
 C         -3.6683293240        0.1754709065        0.0816743604
 C         -2.2193774006        0.1920695023       -0.1103607444
 C         -1.4674973055       -0.9578037407        0.1075927171
 C         -0.0909110041       -1.0008358821       -0.0544853797
 C          0.6298690833       -2.2965646363        0.1571001422
 C          0.5620743915        0.1699869499       -0.4519662741
 C          2.0096347563        0.2700044374       -0.6522516689
 C          2.9540332445       -0.1584173158        0.1659369613
 F          2.7954226422       -0.7588377328        1.3396201011
 F          4.2590866724       -0.0117453913       -0.0711843710
 C         -0.1920624401        1.3145446156       -0.7114133015
 C         -1.5631437707        1.3544006289       -0.5436508230
 C         -2.3149576184        2.6246887067       -0.8063276401
 H         -5.3767063490       -0.5431742569        1.0723016187
 H         -3.7813770644       -1.2136644562        1.6623789327
 H         -4.2379546941        0.8359747030       -0.5584333174
 H         -1.9807864824       -1.8640390201        0.3938810879
 H         -0.0393854642       -3.1331785422       -0.0303115845
 H          0.9840846063       -2.3733931924        1.1845590353
 H          1.4901931032       -2.3815458265       -0.5035573517
 H          2.3492680325        0.8018703253       -1.5296540048
 H          0.3239948675        2.2071849295       -1.0370962652
 H         -1.6273921805        3.4334232812       -1.0408742791
 H         -2.9035019745        2.9103568337        0.0640581228
 H         -2.9961048869        2.5011809072       -1.6484537073
  26
        -41.23391534
 C         -4.4491436000       -0.7783938144        0.2650236687
 C         -3.6370722546        0.2648308020        0.3697364337
 C         -2.2042570663        0.2436058098        0.0803283778
 C         -1.4560503651       -0.9067268741        0.3067905829
 C         -0.0915206903       -0.9777354719        0.0690706967
 C          0.6251006478       -2.2714772684        0.3054817162
 C          0.5525996429        0.1645250869       -0.4159609073
 C          1.9877348275        0.2339415006       -0.7015217921
 C          2.9722409506       -0.1696218632        0.0811796271
 F          2.8740786701       -0.7123052964        1.2891910021
 F          4.2632509743       -0.0535266427       -0.2364298156
 C         -0.1997351099        1.3093945025       -0.6793514266
 C         -1.5571789406        1.3791478210       -0.4306419627
 C         -2.3124323634        2.6388360298       -0.7314231477
 H         -5.4973710863       -0.7036801038        0.4992735020
 H         -4.1065126374       -1.7410446430       -0.0757772843
 H         -4.0401055293        1.2194089371        0.6812778304
 H         -1.9558239544       -1.7794875757        0.7007449473
 H         -0.0631098628       -3.1069197598        0.1992249371
 H          1.0364146812       -2.3017576275        1.3138914868
 H          1.4451228866       -2.4016897826       -0.3976939574
 H          2.2829305403        0.7190163958       -1.6210962724
 H          0.3075309424        2.1780518454       -1.0759741146
 H         -1.6662732556        3.3638830926       -1.2198936836
 H         -2.6929570366        3.0862486790        0.1869515047
 H         -3.1605757226        2.4335750604       -1.3826407290
