  23
        -42.28703545
 C         -4.0445638570        1.1755013599       -0.4431999202
 C         -3.5947509753       -0.0322672174       -0.1236829462
 C         -2.2009569622       -0.4309399434        0.0218042454
 C         -1.8953279194       -1.7671383993        0.2915000433
 C         -0.5897916866       -2.1839557920        0.4254251026
 C          0.4803123299       -1.2987802519        0.2841930023
 C          1.8389302690       -1.8408476215        0.3860088589
 C          2.8140342420       -1.6394589412       -0.4864813908
 C          0.1738198232        0.0476846336        0.0536550274
 C          1.2469349094        1.1002570515       -0.0200667228
 F          2.2499007383        0.9130095004        0.8515202491
 F          1.8144522837        1.1896864365       -1.2412206527
 F          0.7701782665        2.3312201553        0.2388493065
 C         -1.1412847328        0.4672500577       -0.0796133788
 H         -5.0992495098        1.3716334031       -0.5299464047
 H         -3.3942318699        2.0118031053       -0.6328548679
 H         -4.3070204821       -0.8301504109        0.0468171508
 H         -2.6973245856       -2.4837554097        0.3955211390
 H         -0.3752455332       -3.2232937472        0.6265182656
 H          1.9914085114       -2.5129708720        1.2215256838
 H          2.6931277678       -1.0193309970       -1.3578619824
 H          3.7771217814       -2.1038471908       -0.3634767769
 H         -1.3400350550        1.5128597622       -0.2515428631
