23
 energy: -42.289475323216 gnorm: 0.000051428744 xtb: 6.4.1 (23d549d)
C        -4.62816689900000   -0.26939354530000   -0.09559975950000
C        -3.49002658680000    0.41496209140000   -0.10479607370000
C        -2.14352339030000   -0.13875020460000   -0.06517574640000
C        -1.87413378400000   -1.50787487910000   -0.00925995560000
C        -0.57931056670000   -1.97580658370000    0.02408790070000
C         0.51606531060000   -1.11020176800000    0.00389563160000
C         1.88173194400000   -1.62740698610000    0.03098049820000
C         2.24486693150000   -2.73803377500000    0.65926526330000
C         0.24416253490000    0.26424807950000   -0.05487334710000
C         1.37534335860000    1.25417523730000   -0.06235182020000
F         2.11634719850000    1.19114033920000   -1.18864029880000
F         0.96099063160000    2.52686385800000    0.02700246500000
F         2.23561636800000    1.07529727870000    0.95767566530000
C        -1.05698737670000    0.73562914420000   -0.08575333800000
H        -5.57965684680000    0.23246236510000   -0.12697314440000
H        -4.66519099220000   -1.34443224990000   -0.05706945730000
H        -3.52847004590000    1.49633177270000   -0.14508710500000
H        -2.68822653750000   -2.21530784520000    0.00329942770000
H        -0.39778796970000   -3.03924872190000    0.04526450350000
H         2.62877109420000   -1.04587354820000   -0.49056745860000
H         1.54861723750000   -3.33251363320000    1.22681674420000
H         3.26540953960000   -3.07843965920000    0.64862264250000
H        -1.23459851490000    1.80024554870000   -0.12476531270000
