23
 energy: -42.292360270829 gnorm: 0.000057262242 xtb: 6.5.0 (unknown)
C           -1.98574819860000        3.97823014790000        0.22856353960000
C           -2.48455493520000        2.75528445130000        0.09599478970000
C           -1.73829507890000        1.50190704310000        0.09625429070000
C           -2.42623967100000        0.31101043260000       -0.14833922030000
C           -1.78803627450000       -0.91705027610000       -0.14916083710000
C           -2.51862390290000       -2.20122680890000       -0.38563305910000
C           -0.41782569980000       -0.93469716190000        0.08788092130000
F            0.20148130330000       -2.13220518740000        0.14309208110000
C            0.31589003480000        0.22691666570000        0.31688775690000
C            1.75754808520000        0.21458785670000        0.55964145160000
C            2.64149411510000       -0.55985008460000       -0.04817090550000
F            2.41797369300000       -1.43168785350000       -1.01604762610000
F            3.94634920690000       -0.51760889700000        0.21200759410000
C           -0.36917411920000        1.43781319380000        0.33507587520000
H           -2.62378251420000        4.84485205570000        0.21307112700000
H           -0.93442093090000        4.17197688030000        0.35280139210000
H           -3.55314507450000        2.63810192490000       -0.03485883330000
H           -3.49010257370000        0.34519014270000       -0.33429284250000
H           -3.57318641410000       -2.01838161940000       -0.57072200080000
H           -2.41745060960000       -2.85546508090000        0.47946668780000
H           -2.09156246360000       -2.72356377250000       -1.24060075050000
H            2.14488973440000        0.92101916470000        1.27801367210000
H            0.19007782810000        2.33869586460000        0.52994561240000
