  21
        -34.44313099
 C          3.5494614919        0.5598546981        0.0026241700
 O          2.1370421973        0.6910857640        0.0013234849
 C          1.4465899367       -0.4689855271       -0.0012682214
 O          1.9833328039       -1.5499736621       -0.0029460671
 C          0.0033437856       -0.2517104953       -0.0009925523
 C         -0.9795390529       -1.2893366352       -0.0004922078
 C         -2.1880029246       -0.6723287986        0.0001323132
 C         -3.5764991929       -1.2012376745        0.0016310029
 O         -2.0144711027        0.6766396227        0.0003481081
 C         -0.6970237794        0.9331415793       -0.0005021820
 C         -0.2567906222        2.3498601429       -0.0005019927
 H          3.9489261656        1.5706841347        0.0231140224
 H          3.8840786312        0.0331451328       -0.8938070332
 H          3.8791618009       -0.0014960909        0.8795971957
 H         -0.7756382077       -2.3393176221       -0.0005497536
 H         -3.5521039931       -2.2861974688        0.0036919182
 H         -4.1160602888       -0.8566743734       -0.8795367344
 H         -4.1149667265       -0.8532857261        0.8821203236
 H         -1.1292035165        2.9979908212        0.0084483079
 H          0.3444167569        2.5593714227       -0.8831523668
 H          0.3594462531        2.5543131092        0.8727935668
