24
 energy: -37.204136622175 gnorm: 0.000038447809 xtb: 6.4.1 (23d549d)
C         3.20603615360000    1.76326294130000   -1.26365931170000
C         2.00515233900000    1.26369881720000   -0.99332601580000
C         1.75481503320000    0.02370693090000   -0.28730099110000
C         2.73449189630000   -0.97102902570000   -0.01253685930000
C         2.23353913670000   -2.05552288980000    0.62099556060000
S         0.54376173740000   -1.92082351010000    0.91890390330000
C         0.50227107560000   -0.35858367380000    0.14947288610000
C        -0.72706424070000    0.38836706560000    0.12185288440000
S        -0.74714432820000    2.03345685240000    0.70240180400000
C        -2.45146358470000    2.12412449970000    0.50193786690000
C        -2.97293844020000    0.96665055510000    0.03179911220000
C        -1.99690742610000   -0.03931694450000   -0.20176939520000
C        -2.34943000070000   -1.32459634110000   -0.78384319110000
C        -1.58244869250000   -2.03649729310000   -1.59871437340000
H         3.31741711010000    2.68905324100000   -1.80074985460000
H         4.11708570770000    1.28018640960000   -0.95494068530000
H         1.12174142390000    1.80186633830000   -1.31116885840000
H         3.76715501160000   -0.87795207500000   -0.29415743860000
H         2.74961138040000   -2.94052733070000    0.93657009960000
H        -2.95989182840000    3.03603665860000    0.74459227200000
H        -4.01996841450000    0.82182984200000   -0.16798848990000
H        -3.35034159610000   -1.66529890190000   -0.54961123240000
H        -0.59858320370000   -1.70868067160000   -1.88971259650000
H        -1.91792309910000   -2.97167330980000   -2.01226077030000
