  31
        -45.39489105
 C         -0.6843286907        3.8349013689        0.2086023757
 C         -1.7061702095        2.9881280039        0.2190778385
 C         -1.6256430323        1.5316016710        0.1802427197
 C         -2.7841965240        0.7968313455       -0.0589704027
 C         -2.7741582480       -0.5958540386       -0.1064381451
 C         -4.0278372222       -1.2999939723       -0.3531179865
 C         -4.2065707928       -2.6146568925       -0.3887286476
 C         -1.5631143663       -1.2580289318        0.0795260935
 C         -0.3998841069       -0.5378632281        0.3161304626
 O          0.7375029034       -1.2654787641        0.5607747307
 C          1.9626532893       -0.7836819243        0.1825815228
 C          3.0560941141       -1.1651876918        0.9544105718
 C          4.3286579265       -0.7667835691        0.5928774043
 C          4.5232393251        0.0138172042       -0.5346183250
 C          3.4360463772        0.3822823620       -1.3083960397
 C          2.1579592958       -0.0145951263       -0.9600842958
 C         -0.4281760349        0.8483710702        0.3807250034
 H         -0.8397134511        4.8998903243        0.2324782431
 H          0.3416655374        3.5106838882        0.1688159502
 H         -2.7149887379        3.3822001598        0.2378401783
 H         -3.7167700829        1.3221508367       -0.2114061336
 H         -4.8802044926       -0.6513643477       -0.5158378481
 H         -3.4063654768       -3.3169105930       -0.2314621685
 H         -5.1765513748       -3.0418252140       -0.5775023901
 H         -1.5001346350       -2.3332625210        0.0508972901
 H          2.8871069845       -1.7745211109        1.8285825228
 H          5.1723020760       -1.0645487346        1.1976192175
 H          5.5176700464        0.3286762386       -0.8123370462
 H          3.5808157552        0.9799359101       -2.1963617108
 H          1.3130588126        0.2613868876       -1.5744896824
 H          0.4789922212        1.3872760744        0.6060179794
  31
        -45.39484518
 C         -0.8321516905        3.6943595333        0.0407967987
 C         -1.8055729137        2.7965700385        0.1274398174
 C         -1.6463341930        1.3458343301        0.1520375795
 C         -2.7671673605        0.5419565795       -0.0370201155
 C         -2.6764737765       -0.8478167052       -0.0230710289
 C         -3.8304706800       -1.7200360770       -0.2152618988
 C         -5.0524114657       -1.3503042440       -0.5779185182
 C         -1.4283071736       -1.4313357823        0.1838340833
 C         -0.3011366812       -0.6412932830        0.3690096786
 O          0.8769196287       -1.2922062013        0.6338532048
 C          2.0692831334       -0.7590029294        0.2209520279
 C          2.2106822447       -0.0373681852       -0.9599890784
 C          3.4604459442        0.4165035298       -1.3398701355
 C          4.5728409490        0.1517263163       -0.5594909724
 C          4.4327476699       -0.5822856788        0.6066983495
 C          3.1886204661       -1.0368136425        0.9997772981
 C         -0.4085855576        0.7419141430        0.3662290290
 H         -1.0438171627        4.7497049132        0.0208803767
 H          0.2078761954        3.4226001507       -0.0216759523
 H         -2.8331682846        3.1372560937        0.1635449259
 H         -3.7248587958        1.0145733269       -0.1909454050
 H         -3.6290773394       -2.7710318772       -0.0477596053
 H         -5.3182601963       -0.3260217094       -0.7753114890
 H         -5.8424071962       -2.0716760344       -0.6982522979
 H         -1.3178183704       -2.5048127830        0.2067710047
 H          1.3466031523        0.1574670124       -1.5788053207
 H          3.5633439131        0.9768039045       -2.2575327044
 H          5.5448539837        0.5107193710       -0.8619352142
 H          5.2967331032       -0.7993165017        1.2170503559
 H          3.0622269536       -1.6110332404        1.9043844482
 H          0.4677670814        1.3425874876        0.5542712526
  31
        -45.39467024
 C         -2.4829146681        4.1619936055        0.5037536212
 C         -2.8948804337        2.9008777735        0.5352581739
 C         -2.1010836739        1.7165382647        0.2239721693
 C         -2.7392593978        0.4797662250        0.1642394852
 C         -2.0429405640       -0.6856761239       -0.1446109300
 C         -2.6816511525       -1.9945414664       -0.2329705455
 C         -3.9535874760       -2.2784776585        0.0184834242
 C         -0.6723499031       -0.6020827035       -0.3862205637
 C         -0.0185570397        0.6199526042       -0.3032589664
 O          1.3163160130        0.7672674942       -0.5835915094
 C          2.2036972468       -0.2260524597       -0.2632475282
 C          3.3200987632       -0.3649513517       -1.0823220403
 C          4.2853668000       -1.3058052936       -0.7789335427
 C          4.1473283250       -2.1146575641        0.3369173855
 C          3.0423741460       -1.9668349502        1.1577386219
 C          2.0719449649       -1.0254065325        0.8675978205
 C         -0.7284002960        1.7751267565       -0.0072288145
 H         -3.1475503457        4.9734982584        0.7460656206
 H         -1.4794587884        4.4410534626        0.2325656312
 H         -3.9234902913        2.6925531272        0.8046035368
 H         -3.8011023909        0.4340411924        0.3500933288
 H         -2.0172397257       -2.7961549472       -0.5328045363
 H         -4.6692943379       -1.5355075384        0.3254909104
 H         -4.3300504805       -3.2828485638       -0.0731982461
 H         -0.1147290244       -1.4913367387       -0.6446041477
 H          3.4128244222        0.2739843162       -1.9467215783
 H          5.1478797420       -1.4103386087       -1.4202432271
 H          4.8998667311       -2.8528646213        0.5690380882
 H          2.9339795560       -2.5848439880        2.0368705570
 H          1.2179494343       -0.9013063945        1.5178602707
 H         -0.1905043870        2.7075613617        0.0395476409
  31
        -45.39460986
 C         -2.5328313252        3.6814332631        0.1549000348
 C         -1.4695318398        2.8873564818        0.1660846560
 C         -1.4698529227        1.4277572116        0.1590808414
 C         -2.6229476433        0.6752597380       -0.0440034635
 C         -2.5903694469       -0.7164209485       -0.0256368081
 C         -3.7805736751       -1.5365502678       -0.2293339996
 C         -4.9685012311       -1.1187447806       -0.6480082462
 C         -1.3722098412       -1.3572084143        0.1936801540
 C         -0.2102190264       -0.6200496424        0.3767481820
 O          0.9377045763       -1.3217565939        0.6435073915
 C          2.1510604620       -0.8497686034        0.2175470886
 C          3.2609953007       -1.1676167432        0.9944825390
 C          4.5222831504       -0.7769053357        0.5877830059
 C          4.6888941440       -0.0675364180       -0.5901506464
 C          3.5851699805        0.2372845421       -1.3681632082
 C          2.3181505470       -0.1524963259       -0.9744837344
 C         -0.2592864660        0.7668985997        0.3669203582
 H         -2.4302459152        4.7529970787        0.1655242323
 H         -3.5417324577        3.3064633146        0.1424423149
 H         -0.4832584740        3.3348027619        0.1962612726
 H         -3.5596450354        1.1795805674       -0.2114269921
 H         -3.6388046494       -2.5901563033       -0.0220504945
 H         -5.1733109808       -0.0901427447       -0.8907119244
 H         -5.7899555017       -1.8031498847       -0.7732069937
 H         -1.3121380799       -2.4346251598        0.2188664612
 H          3.1137652640       -1.7220931767        1.9082289774
 H          5.3790893517       -1.0245973888        1.1965875974
 H          5.6745978433        0.2414195697       -0.9033366811
 H          3.7081933940        0.7787862912       -2.2945627719
 H          1.4599323387        0.0728366989       -1.5911041076
 H          0.6432944946        1.3362696400        0.5390078931
