  45
        -51.80833633
 C         -3.7529496664       -0.3182015152       -2.5240430366
 C         -4.1754074534        0.2765584785       -1.1854028747
 C         -2.9912472613        0.5731009293       -0.2649122084
 C         -2.1389169811        1.7505401261       -0.7332095578
 C         -0.9338479119        1.9669293449        0.1789063607
 C         -0.0223596760        3.0799847068       -0.3329891369
 C          1.2105285843        3.3205178966        0.5435792200
 C          2.0571751628        2.0748662163        0.8126359294
 C          2.6160783336        1.4270586844       -0.4536470642
 C          3.0936713506       -0.0081986032       -0.1981684931
 C          1.9582558089       -0.8921868887        0.2236256660
 C          1.7767500034       -1.3267150796        1.5662715957
 C          0.6647809884       -2.0761306396        1.7637382114
 C          0.1630328214       -2.6885215404        3.0224860838
 S         -0.2079657264       -2.2765212561        0.2755799188
 C          0.9629841099       -1.3287003195       -0.5979465565
 C          0.7636873935       -1.0924467158       -2.0541387847
 H         -4.6278129271       -0.5860258129       -3.1124496512
 H         -3.1567723503       -1.2146796234       -2.3668342179
 H         -3.1646230155        0.3911098338       -3.1006684304
 H         -4.8383447130       -0.4316306594       -0.6827299042
 H         -4.7416797966        1.1952786410       -1.3561437223
 H         -2.3654532322       -0.3196867280       -0.1932807593
 H         -3.3671285194        0.7920700446        0.7376857398
 H         -2.7503016173        2.6560492052       -0.7602120827
 H         -1.7821229907        1.5649442793       -1.7484292383
 H         -0.3761622768        1.0315334929        0.2343815830
 H         -1.2759503953        2.2107219484        1.1874513133
 H         -0.5921948071        4.0115949335       -0.3841071205
 H          0.2909722595        2.8445303820       -1.3524236192
 H          0.8829478574        3.7217730219        1.5059691861
 H          1.8321726180        4.0813039656        0.0642306610
 H          1.4520005412        1.3454575240        1.3520619039
 H          2.8862945412        2.3525107984        1.4687010265
 H          3.4459893356        2.0243432385       -0.8380788074
 H          1.8447977682        1.3958715706       -1.2214614701
 H          3.8541864136       -0.0073223569        0.5848604563
 H          3.5499682988       -0.4002766389       -1.1112012202
 H          2.4660248739       -1.0814536092        2.3559738565
 H          0.8388346978       -2.4549723028        3.8420345361
 H          0.0920793343       -3.7717145891        2.9233027978
 H         -0.8298215344       -2.3104739871        3.2664000040
 H          0.3461793444       -1.9787963343       -2.5288047621
 H          1.7098794826       -0.8484895259       -2.5324233119
 H          0.0686884320       -0.2678543780       -2.2204612438
