  23
        -33.94654782
 C          4.0087315838       -0.4973086598       -0.0254698462
 C          3.0319216122        0.4015377067       -0.0377808763
 C          1.6183333845        0.0493138441       -0.0025288186
 C          0.6456751687        1.0518010203       -0.0106310089
 C         -0.6964108657        0.7016010156        0.0151245258
 O         -1.7225992213        1.5890847297        0.0021688145
 C         -1.4285934946        2.9646754260       -0.0248848891
 C         -1.0373099365       -0.6693819163        0.0483505387
 C         -2.4344635620       -1.0714883384        0.0814099044
 C         -2.9000630391       -2.2958755715       -0.1373679021
 C          0.0249435411       -1.5727034864        0.0682508247
 N          1.2971539636       -1.2433305361        0.0414783709
 H          5.0469538450       -0.2142231013       -0.0527152691
 H          3.7765549772       -1.5472962483        0.0126958545
 H          3.2507646929        1.4611105401       -0.0754824499
 H          0.9575767892        2.0840954741       -0.0389688125
 H         -2.3926541315        3.4709101530       -0.0231953975
 H         -0.8779742224        3.2397714148       -0.9300292124
 H         -0.8577554495        3.2711806436        0.8574320928
 H         -3.1250643330       -0.2660457327        0.2915666964
 H         -2.2604609753       -3.1276280629       -0.3780846166
 H         -3.9544967124       -2.5072861673       -0.0907426923
 H         -0.1692839080       -2.6352812146        0.1208828173
