23
 energy: -33.946547818409 gnorm: 0.000079756370 xtb: 6.4.1 (23d549d)
C         4.00873158380000   -0.49730865980000   -0.02546984620000
C         3.03192161220000    0.40153770670000   -0.03778087630000
C         1.61833338450000    0.04931384410000   -0.00252881860000
C         0.64567516870000    1.05180102030000   -0.01063100890000
C        -0.69641086570000    0.70160101560000    0.01512452580000
O        -1.72259922130000    1.58908472970000    0.00216881450000
C        -1.42859349460000    2.96467542600000   -0.02488488910000
C        -1.03730993650000   -0.66938191630000    0.04835053870000
C        -2.43446356200000   -1.07148833840000    0.08140990440000
C        -2.90006303910000   -2.29587557150000   -0.13736790210000
C         0.02494354110000   -1.57270348640000    0.06825082470000
N         1.29715396360000   -1.24333053610000    0.04147837090000
H         5.04695384500000   -0.21422310130000   -0.05271526910000
H         3.77655497720000   -1.54729624830000    0.01269585450000
H         3.25076469290000    1.46111054010000   -0.07548244990000
H         0.95757678920000    2.08409547410000   -0.03896881250000
H        -2.39265413150000    3.47091015300000   -0.02319539750000
H        -0.87797422240000    3.23977141480000   -0.93002921240000
H        -0.85775544950000    3.27118064360000    0.85743209280000
H        -3.12506433300000   -0.26604573270000    0.29156669640000
H        -2.26046097530000   -3.12762806290000   -0.37808461660000
H        -3.95449671240000   -2.50728616730000   -0.09074269230000
H        -0.16928390800000   -2.63528121460000    0.12088281730000
