  23
        -35.94610252
 C         -3.7364743528        0.1454043415        0.0216020170
 O         -2.3655348527        0.5122884549        0.0251412073
 C         -1.4926952385       -0.5040186751       -0.0099714141
 O         -1.8449663456       -1.6597057603       -0.0422582184
 C         -0.0682267747       -0.0889058770       -0.0035283390
 C          0.8635507249       -1.1282198866       -0.0034302931
 C          2.2225016130       -0.8611585430       -0.0017130121
 C          3.2459138868       -1.9508533547        0.0193816713
 C          2.5822863540        0.4838029744       -0.0024807774
 N          1.7159414995        1.4769281585       -0.0027534631
 C          0.4120512206        1.2310273042       -0.0021742175
 C         -0.4541038878        2.4468244129       -0.0037034079
 H         -4.2991685382        1.0750516911        0.0468423150
 H         -3.9681258677       -0.4685524175        0.8944908307
 H         -3.9751334069       -0.4249869035       -0.8785148830
 H          0.4943272959       -2.1442265758       -0.0066912411
 H          2.8407479199       -2.8674004258       -0.4020464720
 H          3.5496336839       -2.1543821775        1.0465575827
 H          4.1311497895       -1.6590848871       -0.5411241196
 H          3.6244088858        0.7795869452       -0.0052143943
 H          0.1841026183        3.3260828342       -0.0137953676
 H         -1.0884997790        2.4661370775        0.8795228283
 H         -1.1026799423        2.4554969433       -0.8766712809
