  21
        -34.73862799
 C          3.1046577806        1.9104299512        0.2339185861
 C          1.8123498344        1.8505246942       -0.0626798402
 C          0.9803642469        0.6533663953       -0.0497338539
 C          1.5151768356       -0.6293186719        0.0219363720
 C          0.6761568246       -1.7239006203        0.0026957095
 F          1.2136708904       -2.9646237801        0.0539926749
 C         -0.6938222435       -1.5923854900       -0.0752337535
 C         -1.2588864290       -0.3198334791       -0.1161969936
 C         -2.7208683608       -0.2107025743       -0.1738196361
 C         -3.4641247780        0.6590602637        0.5004193606
 C         -0.4181170950        0.8022379858       -0.1243257793
 O         -0.9139972232        2.0610421649       -0.2347210890
 H          3.6407589467        2.8429708576        0.1978981231
 H          3.6780518057        1.0491075478        0.5315380658
 H          1.2825013806        2.7548209820       -0.3271805207
 H          2.5803526754       -0.7807798893        0.0709869090
 H         -1.3218426767       -2.4692739500       -0.0848340778
 H         -3.2045309684       -0.9470300366       -0.8040666723
 H         -3.0476984010        1.3624487972        1.2042989321
 H         -4.5376389964        0.6608522114        0.4152004832
 H         -1.8717188342        2.0141686187       -0.3663243103
