  39
        -67.42070403
 F          6.5610999873       -0.0542887180       -0.2867951536
 C          5.2919745275       -0.3385365627       -0.0041463618
 F          5.2599198175       -1.2305830051        0.9781743402
 C          4.2684317402        0.2146976606       -0.6388312995
 C          2.8476594673       -0.0069762922       -0.4301436066
 C          1.9470234976        0.6896140859       -1.2417279367
 C          0.5864165479        0.5245238598       -1.1030016063
 C          0.0876407718       -0.3414784582       -0.1322101505
 N         -1.2924461755       -0.5229482334        0.0111190592
 C         -2.2794684363        0.4457914593        0.0605904732
 C         -2.0164229596        1.8748043837        0.1462404648
 C         -2.9120641502        2.7540037005       -0.4609493041
 C         -2.7061365945        4.1179324995       -0.3890708788
 C         -1.6108304735        4.6210500944        0.2946634428
 C         -0.7309604552        3.7536294426        0.9207085650
 C         -0.9298198849        2.3873632183        0.8525001365
 N         -3.4810093538       -0.0591326142        0.0769828684
 C         -1.9503582852       -1.7349598840       -0.0022071423
 C         -3.3283631248       -1.4174043869        0.0373410047
 C         -4.2818814666       -2.4293892274        0.0254825561
 C         -3.8320305140       -3.7309095086       -0.0380689635
 C         -2.4702401035       -4.0330710119       -0.0999351519
 C         -1.5063774870       -3.0443365963       -0.0878789432
 C          0.9735151970       -1.0401015150        0.6835128236
 C          2.3356195612       -0.8763756109        0.5353771700
 H          4.5368700989        0.9202982010       -1.4118510516
 H          2.3242134754        1.3631604347       -1.9966891998
 H         -0.0984422041        1.0621559984       -1.7412863117
 H         -3.7627101678        2.3448930668       -0.9831419381
 H         -3.4014402184        4.7924328146       -0.8664481201
 H         -1.4482073011        5.6873045988        0.3484888795
 H          0.1130378880        4.1430222647        1.4709241359
 H         -0.2513885456        1.7222057889        1.3664982222
 H         -5.3321168881       -2.1892063719        0.0596493147
 H         -4.5460429281       -4.5410564363       -0.0482786811
 H         -2.1635568797       -5.0666978148       -0.1606378906
 H         -0.4553039078       -3.2840567772       -0.1499638494
 H          0.5868320271       -1.6996800975        1.4457752307
 H          2.9987137274       -1.4262272413        1.1824193369
  39
        -67.42061104
 F          6.5092208830        0.0990245691       -0.1376256769
 C          5.1947095937        0.1759112123       -0.3322421938
 F          4.9564897878        1.0169291955       -1.3306945912
 C          4.3166256365       -0.5040910391        0.3910880289
 C          2.8676053344       -0.5102753553        0.2838665180
 C          2.1461104309       -1.3043899444        1.1789598880
 C          0.7688391750       -1.3556670373        1.1369108621
 C          0.0748621719       -0.6103950472        0.1874799241
 N         -1.3220359807       -0.6714138806        0.1315710984
 C         -2.2189410759        0.3768182653        0.0213232119
 C         -1.8488454877        1.7813919918        0.1146659230
 C         -2.5727287297        2.7105822905       -0.6313128851
 C         -2.2628560643        4.0546861396       -0.5595036435
 C         -1.2343437577        4.4885648072        0.2615743677
 C         -0.5276988847        3.5730700368        1.0237945802
 C         -0.8314145065        2.2261951410        0.9567522162
 N         -3.4499080537       -0.0264741171       -0.1235880499
 C         -2.0736234331       -1.8246521774        0.0472635212
 C         -3.4110202457       -1.3932080158       -0.1156041761
 C         -4.4371453070       -2.3227000909       -0.2439080514
 C         -4.0968680874       -3.6583705851       -0.2185721137
 C         -2.7710333874       -4.0739099638       -0.0809065052
 C         -1.7367763879       -3.1683027354        0.0496821478
 C          0.7828056910        0.1797801417       -0.7155680355
 C          2.1594445881        0.2329619521       -0.6643448835
 H          4.7457083922       -1.1320306886        1.1587272233
 H          2.6754561251       -1.8834748553        1.9211941046
 H          0.2220758834       -1.9579223177        1.8468694180
 H         -3.3739087607        2.3554548838       -1.2603066601
 H         -2.8243590489        4.7677456630       -1.1447370892
 H         -0.9896680090        5.5390026042        0.3151089016
 H          0.2621305747        3.9099383517        1.6790038641
 H         -0.2904523417        1.5249082000        1.5752286891
 H         -5.4571124252       -1.9954967683       -0.3640630776
 H         -4.8696085288       -4.4065698948       -0.3151639585
 H         -2.5491161772       -5.1307666536       -0.0787979919
 H         -0.7118457487       -3.4960138549        0.1409800501
 H          0.2448997503        0.7515109142       -1.4566408599
 H          2.6820260540        0.8520554964       -1.3741544611
