42
 energy: -68.162086908668 gnorm: 0.000058333594 xtb: 6.4.1 (23d549d)
F        -6.79727562720000   -0.45245257150000   -0.19053961210000
C        -5.51614767770000   -0.07103968740000   -0.17420488830000
F        -5.46168370940000    1.24804052770000   -0.34662249230000
C        -4.51062991960000   -0.91875078700000   -0.00820001850000
C        -3.08881758180000   -0.64205062120000    0.03068886580000
C        -2.53670212480000    0.63069431690000   -0.14093370170000
C        -1.17707927760000    0.83006170460000   -0.08392555260000
C        -0.29703770620000   -0.23314880220000    0.16116626340000
N         1.06405659620000   -0.03789709840000    0.18789465120000
C         1.65076902500000    1.24576253090000    0.24999396140000
C         2.65831721420000    1.66087668820000   -0.62385723510000
C         3.23380654830000    0.85787660260000   -1.76605192110000
C         2.59732723110000   -0.50624823280000   -2.04416776840000
C         2.75893914630000   -1.39616255650000   -0.85156086380000
C         1.97149035900000   -1.12579770140000    0.26446797370000
C         2.09954252900000   -1.88030163990000    1.42189075170000
C         3.01310672910000   -2.91886358880000    1.46321243280000
C         3.79982356640000   -3.19472507780000    0.35748381630000
C         3.67663224990000   -2.43281079410000   -0.79190348500000
C         3.19242439720000    2.93563638860000   -0.44330261800000
C         2.75735332680000    3.78325467990000    0.55453874060000
C         1.76353597970000    3.35971195300000    1.42197984040000
C         1.22746420990000    2.09920686390000    1.27141207280000
C        -0.84574844750000   -1.51511521010000    0.29469756970000
C        -2.20647137400000   -1.70648722940000    0.23538878660000
H        -4.80313408030000   -1.95178486060000    0.11627787060000
H        -3.17477994100000    1.47821301100000   -0.33056398020000
H        -0.78306948920000    1.82191064650000   -0.24494216810000
H         4.30004961110000    0.70616428040000   -1.56457972160000
H         3.16287502050000    1.46852105510000   -2.67129263090000
H         3.08256733950000   -0.94954023550000   -2.91545963750000
H         1.53607079630000   -0.37662238330000   -2.27024113730000
H         1.48641511020000   -1.64972399530000    2.28080138410000
H         3.11469038040000   -3.50908467140000    2.36159807310000
H         4.51363989650000   -4.00411639770000    0.39215488680000
H         4.29258728500000   -2.64894835650000   -1.65306700790000
H         3.97004546270000    3.26517210180000   -1.11831331820000
H         3.19178143100000    4.76585041350000    0.65861407790000
H         1.41721526130000    4.00318442430000    2.21647043110000
H         0.46425635170000    1.74885494610000    1.95114427190000
H        -0.19656490550000   -2.36525880670000    0.43719211870000
H        -2.60067011750000   -2.70617436180000    0.34894138050000
