34
 energy: -48.199140049200 gnorm: 0.000061100229 xtb: 6.4.1 (23d549d)
C         5.82495208970000   -1.10008329200000    0.42657707890000
C         5.00607968080000   -0.21452703730000   -0.12844051610000
C         3.54988674030000   -0.21784511590000   -0.07454139280000
C         2.81071601810000   -1.23950732950000    0.52484842320000
C         1.43289261910000   -1.18085607790000    0.54042720170000
C         0.73779181140000   -0.11344898600000   -0.01768938030000
C        -0.73780203760000   -0.11328475450000    0.01709025960000
C        -1.43315089730000   -1.18007569240000   -0.54190267360000
C        -2.81098733870000   -1.23839278690000   -0.52644348200000
C        -3.54995309590000   -0.21697766440000    0.07363330220000
C        -5.00614142610000   -0.21323156860000    0.12744729410000
C        -5.82519246340000   -1.10191703990000   -0.42229624140000
C        -2.85774569520000    0.84076888420000    0.65602598860000
C        -1.46783105810000    0.91416237700000    0.64024108380000
N        -0.82911516580000    2.00542233440000    1.19243496460000
C         1.46803672900000    0.91423564770000   -0.64020637750000
N         0.82957781380000    2.00606177490000   -1.19153540860000
C         2.85792715930000    0.84039653440000   -0.65631529710000
H         6.89379942510000   -1.01064226270000    0.33220150230000
H         5.47254812340000   -1.94324288680000    0.99533660290000
H         5.43250504910000    0.61441438250000   -0.68164585840000
H         3.31076187120000   -2.08250222870000    0.97372401870000
H         0.86668458250000   -1.97460491950000    1.00743255630000
H        -0.86712394140000   -1.97353071670000   -1.00963204680000
H        -3.31119033010000   -2.08073480200000   -0.97636048180000
H        -5.43244298270000    0.61863028480000    0.67629609580000
H        -5.47301555250000   -1.94861732240000   -0.98587643270000
H        -6.89400387430000   -1.01194470600000   -0.32803993300000
H        -3.40984461140000    1.63474973450000    1.14177980650000
H        -1.35049477440000    2.52713559110000    1.87739020740000
H         0.15006426460000    1.89129916340000    1.39762676670000
H        -0.14968780470000    1.89246587420000   -1.39658451280000
H         1.35101649770000    2.52817877140000   -1.87613186500000
H         3.41020532510000    1.63453168800000   -1.14160916790000
