23
 energy: -37.838921627395 gnorm: 0.000039544941 xtb: 6.4.1 (23d549d)
C         2.16016337110000   -3.15310203750000    0.04750091150000
C         0.92643771470000   -2.65523297310000    0.03995416940000
C         0.60548554530000   -1.25793926650000    0.01930355890000
S         1.80729679080000    0.00031167290000    0.00029815150000
C         0.60503133200000    1.25815892520000   -0.01868410760000
C         0.92555403140000    2.65554551860000   -0.03968979500000
C         2.15912812540000    3.15376176590000   -0.04887068260000
C        -0.65690343600000    0.70713624070000   -0.00586502520000
C        -0.65664693980000   -0.70735838890000    0.00646573460000
O        -1.80769796880000   -1.44732809550000   -0.00501461020000
C        -2.92850522210000   -0.66874475560000   -0.37234025320000
C        -2.92908392510000    0.66777262910000    0.37151315410000
O        -1.80818992740000    1.44673850390000    0.00528643280000
H         2.34172769760000   -4.21270413180000    0.05883565570000
H         3.02234925660000   -2.50695641190000    0.04268675800000
H         0.06000872000000   -3.30358469370000    0.04698384590000
H         0.05894048570000    3.30365837520000   -0.04589739450000
H         3.02150017370000    2.50785840240000   -0.04510711060000
H         2.34038352190000    4.21341777560000   -0.06032035990000
H        -3.80908905720000   -1.25915925330000   -0.11617687280000
H        -2.91210910200000   -0.47957947310000   -1.45479049710000
H        -2.91369881530000    0.47861472140000    1.45397991780000
H        -3.80961873320000    1.25790786210000    0.11449612870000
