  54
        -60.20045974
 C         -6.2103662834       -0.3683322985        2.3379127649
 C         -5.7650686939        0.5025126647        1.1690898930
 C         -4.2804600171        0.8677581397        1.2171604261
 C         -3.3156518265       -0.3187424063        1.1576919231
 C         -3.4153444513       -1.1746221517       -0.1050662513
 C         -2.9690388455       -0.4531449021       -1.3860533400
 C         -1.5042580861       -0.1162128360       -1.3606753293
 C         -1.0990683574        1.1329988430       -0.9118639103
 C          0.2343945163        1.5021725771       -0.8147239729
 C          0.5915428307        2.8737490529       -0.3207619368
 C          1.2093977893        0.5813204321       -1.1974313327
 C          2.6790928684        0.8767477550       -1.0870924450
 C          3.2226126105        0.4236670801        0.2733416085
 C          4.7143696736        0.7162246055        0.4091590489
 C          5.2719755267        0.4025606109        1.7985101519
 C          5.1849920225       -1.0674495799        2.2125438819
 C          5.9817235583       -1.9967767831        1.3044995297
 C          0.8052014356       -0.6623378713       -1.6613405877
 C         -0.5275881917       -1.0341538408       -1.7517725326
 C         -0.8821117958       -2.3903246433       -2.2882544611
 H         -7.2887633683       -0.5101430369        2.3135023132
 H         -5.9479177476        0.1013378502        3.2837175456
 H         -5.7403924614       -1.3475513066        2.2974800571
 H         -6.3421372293        1.4309659642        1.1819261431
 H         -5.9926193078       -0.0050236354        0.2300309802
 H         -4.0865774359        1.4128596844        2.1449376748
 H         -4.0678462618        1.5505127866        0.3921838710
 H         -3.4897275067       -0.9598373033        2.0241774936
 H         -2.2951228508        0.0632816134        1.2383254576
 H         -4.4417952742       -1.5218208060       -0.2355494958
 H         -2.7883029637       -2.0574958778        0.0379901090
 H         -3.5518946622        0.4616081993       -1.5038409529
 H         -3.1890755039       -1.0968441475       -2.2397412124
 H         -1.8553781283        1.8521273733       -0.6279225338
 H         -0.3025837130        3.4135099556       -0.0179148513
 H          1.0863855682        3.4472286541       -1.1048493543
 H          1.2660841175        2.8201188022        0.5319044786
 H          2.8688536955        1.9429887608       -1.2162080166
 H          3.2171312875        0.3437132006       -1.8748718611
 H          3.0378446508       -0.6462434855        0.3810645064
 H          2.6777525556        0.9336640421        1.0711434836
 H          4.8833440441        1.7777720431        0.2077289179
 H          5.2653484933        0.1531947280       -0.3461079642
 H          4.7321602557        1.0024755006        2.5360010706
 H          6.3203038200        0.7113394938        1.8278637940
 H          4.1409552417       -1.3841180009        2.2325568569
 H          5.5702851936       -1.1549198281        3.2316925941
 H          5.5563299774       -2.0262372135        0.3048584357
 H          5.9762244199       -3.0090458829        1.7029193484
 H          7.0148374105       -1.6633174252        1.2303426391
 H          1.5648203659       -1.3696380594       -1.9673565837
 H          0.0183357809       -2.9530997437       -2.5225746764
 H         -1.4736549183       -2.2989218155       -3.1993479167
 H         -1.4654867476       -2.9610698529       -1.5681093240
