  24
        -37.20395052
 C          0.9717631131        1.2512079914        2.3399583208
 C          1.6030478317        0.1326655382        2.0090074492
 C          1.6665118998       -0.4578441548        0.6814986790
 C          2.7994843798       -1.2159775573        0.2753656723
 C          2.7547441492       -1.6065493776       -1.0196739010
 S          1.3160603600       -1.0875887169       -1.8015419292
 C          0.7513302222       -0.3191955080       -0.3419264196
 C         -0.5519568518        0.2885019587       -0.3429276472
 S         -1.0222352358        1.3243625926       -1.6590429843
 C         -2.5664885797        1.5831211978       -0.9475837050
 C         -2.7123836098        0.9161895452        0.2208967782
 C         -1.5671317167        0.1567486242        0.5844096434
 C         -1.4735229672       -0.7015734432        1.7476671221
 C         -2.2833615495       -0.6534798616        2.7990769108
 H          1.0041498566        1.6352717101        3.3446712743
 H          0.4111028643        1.8272288886        1.6245793845
 H          2.1873933709       -0.3917739441        2.7555487529
 H          3.6214739403       -1.4331626379        0.9347057138
 H          3.4790812386       -2.1712830891       -1.5722699127
 H         -3.2727544341        2.2163398598       -1.4468560677
 H         -3.6150793701        0.9384632207        0.8034710543
 H         -0.6695911441       -1.4253386166        1.7211468579
 H         -3.0798155073        0.0661348982        2.8813610981
 H         -2.1671432082       -1.3311945627        3.6267860382
