  23
        -38.06179491
 C         -4.1861739344        0.7483229550        0.1525354188
 C         -2.9279456176        0.9068681044       -0.2320040093
 C         -1.8824315102       -0.1099173744       -0.0853882298
 C         -2.1963735835       -1.4511242870       -0.2824724738
 C         -1.2272367543       -2.4293488602       -0.1634337682
 C          0.0725146944       -2.0687732573        0.1264615610
 C          0.4167898865       -0.7277599433        0.2979234345
 C          1.8325166597       -0.4419529029        0.5587895539
 C          2.5663997706        0.4683348615       -0.0551416445
 F          2.1714277533        1.3078349077       -1.0053342372
 F          3.8627034269        0.6654064119        0.1873361347
 C         -0.5663724725        0.2628256178        0.2266613343
 C         -0.2606636306        1.6959102622        0.5443915708
 H         -4.9242472841        1.5187255311        0.0075214705
 H         -4.5242911815       -0.1489043300        0.6441326066
 H         -2.6223867935        1.8353927904       -0.6959762983
 H         -3.2086749642       -1.7223211502       -0.5412110050
 H         -1.4827663730       -3.4686650693       -0.3053707612
 H          0.8413993342       -2.8233685795        0.2040257037
 H          2.3471671720       -1.0793729990        1.2628633013
 H         -0.1059349733        2.2690363400       -0.3699317935
 H          0.6383509495        1.7786024996        1.1503002645
 H         -1.0861793042        2.1440427078        1.0931064044
