26
 energy: -39.883141375950 gnorm: 0.000041280267 xtb: 6.4.1 (23d549d)
C        -4.64766030350000    0.18140296810000    0.51759250410000
C        -3.74182602130000   -0.77048408800000    0.32868796890000
C        -2.32682196400000   -0.58592242290000    0.03001652600000
C        -1.51882936160000   -1.71099328030000   -0.14548496790000
C        -0.18112411360000   -1.57572982320000   -0.45054922370000
C         0.40994596000000   -0.32411837810000   -0.56727655160000
C         1.86567049580000   -0.23896739030000   -0.93129468420000
C         2.76817719710000   -0.40629979310000    0.28530203620000
O         2.41032639490000   -0.78046525760000    1.36047007290000
O         4.06471508090000   -0.11061857120000    0.05455129070000
C        -0.37508635070000    0.81565870130000   -0.36300975560000
C         0.15285137590000    2.18429956650000   -0.42281712240000
C         1.25484660190000    2.60882661250000    0.17770079780000
C        -1.73205795400000    0.66539072080000   -0.09528761080000
H        -5.67411784310000   -0.05936123020000    0.73517932230000
H        -4.41285138310000    1.23070505530000    0.46700581780000
H        -4.05122137050000   -1.80662981230000    0.39670491240000
H        -1.94983069550000   -2.69726090100000   -0.05088114970000
H         0.42413803520000   -2.45852058730000   -0.59869709180000
H         2.08626184090000    0.71693753730000   -1.41414887770000
H         2.11763250890000   -1.04876225490000   -1.62471160520000
H         4.22917121060000    0.17850397900000   -0.85229495030000
H        -0.46765504950000    2.88926018580000   -0.96418472300000
H         1.86506690450000    1.95774257310000    0.78114454870000
H         1.56608936620000    3.63884056960000    0.12369036690000
H        -2.32561365080000    1.55693975860000    0.04013460720000
