24
 energy: -37.212186734782 gnorm: 0.000038997227 xtb: 6.4.1 (23d549d)
C         4.83629200940000    1.34275157140000   -0.11380359460000
C         4.50415697140000    0.05739955280000   -0.02235940200000
C         3.16062566210000   -0.44602490960000    0.01720520370000
C         2.77008163950000   -1.76064430000000    0.10480858900000
C         1.38289960120000   -1.93667570290000    0.12052304440000
C         0.68515528050000   -0.75214785930000    0.04533494610000
C        -0.72822269080000   -0.56630017420000    0.03598280510000
C        -1.71050272970000   -1.53141190190000    0.08046314830000
C        -3.00599559440000   -1.00772015580000    0.05421021030000
C        -3.04458160580000    0.36492467860000   -0.01019954590000
C        -4.16862099770000    1.25942309700000   -0.05304003400000
C        -5.44756868630000    0.88942961800000   -0.03981631290000
S        -1.43340744910000    1.01907852430000   -0.03931178750000
S         1.77348755390000    0.60077724960000   -0.04619838350000
H         5.86295912330000    1.66161667950000   -0.14016081370000
H         4.08492028670000    2.11353938960000   -0.16514771660000
H         5.27184725220000   -0.70478717450000    0.02789415600000
H         3.47284304820000   -2.57386767720000    0.15590202220000
H         0.90528544050000   -2.89735235900000    0.18567697840000
H        -1.49600390030000   -2.58364017680000    0.12907696280000
H        -3.88897026100000   -1.62013110260000    0.08159677440000
H        -3.91386558250000    2.31039136460000   -0.09936496060000
H        -5.74551112710000   -0.14359004270000    0.00520668020000
H        -6.23935146670000    1.61644862030000   -0.07418639030000
