  24
        -40.18159772
 C         -5.9101855026        0.0203688286        0.0211481772
 C         -4.8260701832       -0.7474122071       -0.0008275103
 C         -3.4412776087       -0.3003466016       -0.0025966676
 C         -3.0698057634        1.0463512760        0.0066084374
 C         -1.7429929480        1.4127620048        0.0034420385
 C         -0.7200177545        0.4567851818       -0.0078527578
 C          0.6549909234        0.9039418432       -0.0105255346
 C          1.7538886814        0.1312301047       -0.0027908847
 C          3.0829072462        0.6773523668       -0.0066496984
 C          4.1834163741       -0.0668452411        0.0035231673
 F          4.2223899017       -1.3959584453        0.0188963128
 F          5.4230916588        0.4153145501       -0.0001603503
 C         -1.0927830973       -0.8914318493       -0.0171548516
 C         -2.4203462574       -1.2558109646       -0.0149978513
 H         -6.8977476443       -0.4078951278        0.0204301623
 H         -5.8649109118        1.0956464127        0.0411819998
 H         -4.9493270399       -1.8237886479       -0.0188568161
 H         -3.8280677140        1.8138873768        0.0152274144
 H         -1.4810610618        2.4617221111        0.0102234858
 H          0.7870178689        1.9795788754       -0.0181979878
 H          1.6839103923       -0.9461993299        0.0076882238
 H          3.2095338788        1.7489263174       -0.0186658825
 H         -0.3362618226       -1.6605856249       -0.0275885068
 H         -2.6826207854       -2.3046779360       -0.0229022229
