  32
        -48.56491651
 C          4.0387825059       -1.7163238601       -0.5702823694
 C          2.9064988401       -0.7866395818       -0.2592080423
 C          2.9663781140        0.5735497883       -0.5435034926
 C          1.9340835029        1.4427901259       -0.2459827051
 C          2.0174811400        2.9042400984       -0.5607819226
 C          0.7746040392        0.9414170394        0.3670549408
 O         -0.1968301590        1.8588320652        0.6347332264
 C         -1.3795598193        1.4269312215        1.2700371246
 C         -2.2391576621        0.5135993638        0.4283890971
 C         -3.0914615525       -0.3993382979        1.0360276254
 C         -3.8902361776       -1.2270957587        0.2679318715
 C         -3.8392817329       -1.1546886777       -1.1139880416
 C         -2.9912545390       -0.2469258887       -1.7243339075
 C         -2.1978235446        0.5869074985       -0.9569100222
 C          0.6839918123       -0.4112929613        0.6600304759
 C          1.7458162372       -1.2397105837        0.3441805587
 F          1.6238445706       -2.5565904558        0.6425767259
 H          4.6536224755       -1.3171260175       -1.3727674783
 H          3.6608271318       -2.6943256983       -0.8599301131
 H          4.6672629369       -1.8497765574        0.3108738839
 H          3.8560809359        0.9637125621       -1.0163715105
 H          2.9704218775        3.1482498894       -1.0217693570
 H          1.8993130975        3.4898606171        0.3494382956
 H          1.2113722006        3.1894162238       -1.2350205430
 H         -1.9275547863        2.3546341659        1.4744816947
 H         -1.1476188475        0.9501763426        2.2328105886
 H         -3.1271966550       -0.4618963622        2.1148674545
 H         -4.5491393159       -1.9344924685        0.7494253516
 H         -4.4582398875       -1.8059767839       -1.7129213868
 H         -2.9471757143       -0.1863742580       -2.8017161066
 H         -1.5354837038        1.2964630577       -1.4306869356
 H         -0.1899262910       -0.8478582884        1.1142161988
  32
        -48.56212032
 C          5.2140134916       -0.5149573105        0.3400847388
 C          3.7373335546       -0.3109822371        0.1963058870
 C          3.2038732618        0.7273711117       -0.5607394207
 C          1.8439268326        0.9337721936       -0.6891496324
 C          1.2894691484        2.0602993371       -1.5046623128
 C          0.9557449903        0.0643201544       -0.0340226727
 O         -0.3661596338        0.3270049687       -0.2095530339
 C         -1.3141180050       -0.5286027140        0.3904807954
 C         -2.7019820088       -0.0585307119        0.0394686246
 C         -3.7450575598       -0.9715516217       -0.0427029423
 C         -5.0269298200       -0.5437385973       -0.3385711254
 C         -5.2767266678        0.7995956912       -0.5624763310
 C         -4.2395357054        1.7130045964       -0.4855547936
 C         -2.9585556589        1.2874006636       -0.1815001446
 C          1.4582703966       -0.9802672544        0.7284705084
 C          2.8291519745       -1.1423529758        0.8281167782
 F          3.2844422069       -2.1743121848        1.5804529773
 H          5.7445385061       -0.0842066617       -0.5051210888
 H          5.4481355894       -1.5750218292        0.4083804673
 H          5.5720778845       -0.0352951329        1.2516319343
 H          3.8826156382        1.3966585176       -1.0693345219
 H          2.0795347414        2.5725749887       -2.0464839413
 H          0.7836768046        2.7761120539       -0.8577412027
 H          0.5520554823        1.6830323126       -2.2107690893
 H         -1.1943027474       -0.5149986377        1.4864704098
 H         -1.1722360440       -1.5618546119        0.0432113145
 H         -3.5525503177       -2.0216415689        0.1262353577
 H         -5.8315764844       -1.2616527035       -0.3994352445
 H         -6.2768143933        1.1323253023       -0.7978657179
 H         -4.4287171262        2.7619228519       -0.6606812643
 H         -2.1461981921        1.9946744233       -0.1226821284
 H          0.8222204915       -1.6754452320        1.2513079001
  32
        -48.55865576
 C          3.6890440483       -1.8987359692        0.4273838188
 C          2.6576935090       -0.8540903449        0.1349978927
 C          2.7507475513        0.4413839801        0.6189506928
 C          1.7933225928        1.4113781184        0.3507788304
 C          1.9422462358        2.7992012529        0.8984337256
 C          0.6951345481        1.0665181789       -0.4394620432
 O         -0.2728195394        2.0024888771       -0.7469413502
 C         -1.3441671295        2.0610100582        0.1933036284
 C         -2.1012151469        0.7613893256        0.2633682925
 C         -3.0924213831        0.4747440137       -0.6665899133
 C         -3.7372479193       -0.7490561607       -0.6476261355
 C         -3.3929107022       -1.7007307888        0.2976646469
 C         -2.4032878250       -1.4239274483        1.2250664137
 C         -1.7591832825       -0.1993810596        1.2067382085
 C          0.5795022315       -0.2218765176       -0.9485353960
 C          1.5538153419       -1.1513644662       -0.6554873767
 F          1.4251455981       -2.4035317045       -1.1545493404
 H          4.4618645049       -1.5069823645        1.0827323095
 H          4.1497016835       -2.2406310112       -0.4987772949
 H          3.2257261948       -2.7639340190        0.8998493526
 H          3.6016444677        0.7086458492        1.2294893307
 H          2.9824094003        3.1145304994        0.8585770048
 H          1.6207138109        2.8350639226        1.9401875917
 H          1.3369542213        3.4959153402        0.3240954371
 H         -1.9834936063        2.8685615573       -0.1713136477
 H         -0.9558250351        2.3260421728        1.1865634637
 H         -3.3520546882        1.2143300288       -1.4101471017
 H         -4.5075475584       -0.9626089388       -1.3741356735
 H         -3.8935431802       -2.6575099782        0.3097066964
 H         -2.1285390393       -2.1644743579        1.9615505890
 H         -0.9821732900        0.0124167821        1.9282789905
 H         -0.2615716233       -0.4911830814       -1.5670525602
  32
        -48.55661065
 C          3.4783585895       -2.2440110535        0.6138695447
 C          2.5468328621       -1.1129891975        0.3085099721
 C          1.8586214691       -0.4228945311        1.2925088420
 C          0.9929206795        0.6335356369        1.0309579958
 C          0.3692690630        1.3516864681        2.1923260277
 C          0.7789904148        0.9975175809       -0.3025322194
 O         -0.0190791242        2.0202481687       -0.7518687319
 C         -1.3285855591        2.1941976407       -0.2368622482
 C         -2.1058666286        0.9159671682       -0.0534326537
 C         -2.9841769043        0.7785610024        1.0142298602
 C         -3.6990140125       -0.3929491241        1.1885043317
 C         -3.5363523792       -1.4436901030        0.3018396615
 C         -2.6697669934       -1.3102220162       -0.7690623599
 C         -1.9640890570       -0.1343510981       -0.9506907255
 C          1.4779631010        0.3335902699       -1.3102712418
 C          2.3436629907       -0.6889392532       -0.9980667840
 F          3.0048252098       -1.3089041055       -2.0040080401
 H          3.5175214232       -2.4344621465        1.6826652357
 H          4.4814282174       -2.0125027565        0.2575568446
 H          3.1511866560       -3.1493562688        0.1040438189
 H          2.0144160922       -0.7113022785        2.3224299299
 H          0.8775332921        1.0749441318        3.1130815032
 H         -0.6830126104        1.0888647887        2.2966073883
 H          0.4540323658        2.4294526619        2.0676424138
 H         -1.8223002862        2.8155843132       -0.9952369698
 H         -1.3155685218        2.7644131935        0.6999369394
 H         -3.1151295553        1.5969987987        1.7091949601
 H         -4.3801287300       -0.4870487946        2.0215350933
 H         -4.0870871560       -2.3616438208        0.4434520562
 H         -2.5445524799       -2.1227053548       -1.4692189197
 H         -1.2984990493       -0.0294523087       -1.7936695345
 H          1.3391326643        0.6355542883       -2.3360810898
