42
 energy: -59.770504828031 gnorm: 0.000124383686 xtb: 6.4.1 (23d549d)
C         2.47496428550000    2.02024224110000   -1.08057748880000
C         1.36869946220000    1.50224868680000   -1.59691175960000
C         0.03930600790000    1.56374859190000   -0.99127182920000
C        -0.32452815410000    2.57364104170000   -0.11075721870000
C        -1.59435442340000    2.59498258010000    0.46277340960000
C        -2.03205228360000    3.65112689330000    1.36999166440000
C        -1.40592924220000    4.79626794400000    1.60989675180000
C        -2.47779853670000    1.55994705750000    0.17225719720000
C        -2.12744711460000    0.53291523570000   -0.70151136520000
O        -3.09435325070000   -0.41022484000000   -0.90757806350000
C        -2.77667693020000   -1.67973556180000   -1.43875741600000
C        -2.35022281110000   -2.67736268080000   -0.35343328790000
C        -0.97728997790000   -2.39874668570000    0.26464318030000
C         0.18115098150000   -2.80029933240000   -0.65091727640000
C         1.49308160190000   -2.09957468120000   -0.29617619550000
C         1.99227035330000   -2.44959282470000    1.11138836570000
C         3.32860151230000   -1.77798102650000    1.35712359690000
O         3.48086567760000   -0.80522483370000    2.03443501330000
O         4.37274847300000   -2.34593467060000    0.72219814420000
C        -0.87873277520000    0.56117050710000   -1.30685395010000
H         3.42721213880000    1.92052846940000   -1.57259642210000
H         2.48015813140000    2.54296306390000   -0.13978464050000
H         1.42409225890000    0.94697751840000   -2.52632302580000
H         0.38370412890000    3.35150286410000    0.12010568920000
H        -2.97437757710000    3.45380539570000    1.86638687700000
H        -0.47660904760000    5.06257633290000    1.13647813140000
H        -1.81020402720000    5.52288419520000    2.29373851930000
H        -3.46165568420000    1.53540778590000    0.61537653180000
H        -2.02830574830000   -1.61194543190000   -2.23334733910000
H        -3.71166118960000   -2.02901740240000   -1.88846146280000
H        -2.36107790350000   -3.67987160530000   -0.78675713010000
H        -3.10594691990000   -2.64124310480000    0.43352972360000
H        -0.90387659000000   -2.95578425390000    1.20051288290000
H        -0.90200883720000   -1.33813519470000    0.50897151530000
H        -0.06340960310000   -2.54873016370000   -1.68444974270000
H         0.31764557960000   -3.88403077550000   -0.60906817030000
H         1.35591065280000   -1.01794976920000   -0.35585188340000
H         2.25020142010000   -2.37724362840000   -1.03627199870000
H         2.09187396790000   -3.53356073260000    1.21782928970000
H         1.28690281620000   -2.08288936260000    1.85548928130000
H         4.11239339070000   -3.12329930670000    0.21100979570000
H        -0.58037674790000   -0.20047950210000   -2.01046183530000
