  20
        -34.89422707
 C          4.0645310492       -0.3534081684       -0.0242075559
 C          3.1181782464        0.5786770001       -0.0227748080
 C          1.6802767685        0.3539167070       -0.0075696015
 C          0.8207288039        1.4535930049       -0.0071650205
 C         -0.5427911903        1.2667624370        0.0078440391
 F         -1.3245305143        2.3671972528        0.0075203803
 C         -1.1601165137        0.0088063215        0.0185032097
 C         -2.6131268881       -0.0772790652        0.0350196041
 C         -3.3575084358       -1.1701780910       -0.0955092637
 C         -0.2644686986       -1.0670237838        0.0210128610
 F         -0.7325924578       -2.3313994361        0.0464861200
 C          1.1052109976       -0.9165714314        0.0090227894
 H          5.1073004319       -0.0878343180       -0.0361271901
 H          3.8475667274       -1.4073878752       -0.0137288512
 H          3.4077168575        1.6217734400       -0.0338765100
 H          1.2093834781        2.4601669787       -0.0177550750
 H         -3.1034911841        0.8800592010        0.1568995771
 H         -2.9485131752       -2.1543307055       -0.2337567739
 H         -4.4318333950       -1.1024706672       -0.0696074970
 H          1.7136515342       -1.8058592305        0.0143695445
