  24
        -40.18068093
 C         -5.6700577200       -0.8299338598        0.0484531386
 C         -4.3882224945       -1.1681559771       -0.0159450594
 C         -3.2448541855       -0.2619782323       -0.0125965457
 C         -3.3746873256        1.1279644458       -0.0096273562
 C         -2.2519669307        1.9349924802       -0.0053975584
 C         -0.9843592343        1.3856855104       -0.0038881599
 C         -0.8181285224       -0.0022159926       -0.0084394959
 C          0.4801728012       -0.6467117998       -0.0083498640
 C          1.6786217621       -0.0427491178       -0.0017327646
 C          2.9148508598       -0.7767681441       -0.0017908389
 C          4.1112516239       -0.2000490814        0.0046992381
 F          4.3422709893        1.1093709026        0.0119171452
 F          5.2679624983       -0.8564897319        0.0047019167
 C         -1.9616419287       -0.8020771156       -0.0140789989
 H         -6.4458185400       -1.5762670621        0.0415916751
 H         -6.0029057995        0.1916625168        0.1129479931
 H         -4.1271937056       -2.2182325323       -0.0724059224
 H         -4.3535005846        1.5807934568       -0.0141291029
 H         -2.3673336751        3.0092635658       -0.0038756081
 H         -0.1244660563        2.0364855936       -0.0004788746
 H          0.4536821535       -1.7300164499       -0.0139159611
 H          1.7669179511        1.0333453555        0.0041696879
 H          2.8843013536       -1.8553606653       -0.0073959048
 H         -1.8466011655       -1.8778381385       -0.0178233571
  24
        -40.18064948
 C         -4.8028448842       -1.7575200019        0.1064407293
 C         -3.5008031132       -1.5191113551        0.0094432826
 C         -2.8510833315       -0.2126041737       -0.0107733800
 C         -3.5637247111        0.9886191787       -0.0225288174
 C         -2.8950639835        2.1978705057       -0.0416983297
 C         -1.5139786087        2.2353756143       -0.0492149185
 C         -0.7693940411        1.0517319058       -0.0384152358
 C          0.6774868207        1.1394945531       -0.0474932144
 C          1.5483421882        0.1191301465       -0.0088902635
 C          2.9723949315        0.3166609574       -0.0214538137
 C          3.8519871641       -0.6777382694        0.0184510242
 F          3.5575890794       -1.9732689729        0.0745990323
 F          5.1726923566       -0.5210647429        0.0077598559
 C         -1.4600031614       -0.1599939862       -0.0216167942
 H         -5.1872666544       -2.7629828424        0.1150361509
 H         -5.5372630910       -0.9743100957        0.1835036155
 H         -2.8197392263       -2.3591021941       -0.0568697797
 H         -4.6421587051        0.9780663411       -0.0219577271
 H         -3.4565753139        3.1208548333       -0.0520045519
 H         -1.0009283818        3.1862921567       -0.0639644168
 H          1.0730586071        2.1475698506       -0.0869555757
 H          1.2136376747       -0.9064627624        0.0351784725
 H          3.3619474461        1.3219503748       -0.0656373520
 H         -0.9090565752       -1.0884887215       -0.0163765415
  24
        -40.18062091
 C         -4.7155675425       -2.0398023780        0.1009807208
 C         -4.5757645786       -0.7268195994       -0.0334885146
 C         -3.3249084090        0.0244359396       -0.0270184145
 C         -3.3767638003        1.4198951596       -0.0309647166
 C         -2.2141640068        2.1688488322       -0.0200866614
 C         -0.9802708515        1.5491621492       -0.0106331126
 C         -0.8922155477        0.1533830411       -0.0129344780
 C          0.3700804785       -0.5597071358       -0.0090110881
 C          1.5993974281       -0.0214034447       -0.0012161648
 C          2.7941665067       -0.8212312709        0.0020502480
 C          4.0199764877       -0.3100326506        0.0102903075
 F          4.3215267573        0.9849593694        0.0166015734
 F          5.1394669103       -1.0281259849        0.0133385616
 C         -2.0748333380       -0.5868918935       -0.0208924420
 H         -5.6873854256       -2.5025552965        0.0872003599
 H         -3.8810221258       -2.7063645393        0.2355014157
 H         -5.4628712537       -0.1160657587       -0.1510400248
 H         -4.3364561625        1.9166458033       -0.0386716119
 H         -2.2717076403        3.2476511951       -0.0206415744
 H         -0.0848520018        2.1500771281       -0.0038974588
 H          0.2858053805       -1.6400652575       -0.0130106443
 H          1.7461857360        1.0482825210        0.0030268230
 H          2.7054399697       -1.8966270252       -0.0024504733
 H         -2.0093230762       -1.6645788916       -0.0296815583
  24
        -40.17780190
 C         -5.1724835698       -1.3522107786       -0.0246576246
 C         -3.8513177510       -1.3905689634        0.0961169102
 C         -2.9378274517       -0.2542370967        0.0410147365
 C         -3.3741578780        1.0705015215       -0.0172271381
 C         -2.4590568537        2.1056369827       -0.0690613931
 C         -1.1009622452        1.8517855806       -0.0673644764
 C         -0.6293419371        0.5372887166       -0.0087274388
 C          0.7789393722        0.1895497400       -0.0024908692
 C          1.8082320971        1.0433725912       -0.1248886076
 C          3.2083699898        0.6967560052       -0.1221884390
 C          3.7562107173       -0.5061996047        0.0112513880
 F          3.1360971473       -1.6696983163        0.1739942296
 F          5.0721322803       -0.7151263876       -0.0008765960
 C         -1.5667129601       -0.4951197295        0.0501154681
 H         -5.7646403549       -2.2497825821        0.0260389691
 H         -5.7187759744       -0.4381514871       -0.1825974794
 H         -3.3665593481       -2.3485326314        0.2411801998
 H         -4.4292381988        1.2943079322       -0.0141421045
 H         -2.8104452620        3.1266539513       -0.1098808390
 H         -0.4091470424        2.6784859412       -0.1045502191
 H          0.9779027896       -0.8673567940        0.1054539294
 H          1.6215987898        2.1006298803       -0.2430742158
 H          3.9145462302        1.5051895545       -0.2423121961
 H         -1.2143517816       -1.5166615740        0.0981978176
  24
        -40.17776100
 C         -3.9287554782       -2.3378291013        0.0117249246
 C         -4.0902872277       -1.0219900966        0.0751520853
 C         -3.0406759960       -0.0094561107        0.0280669939
 C         -3.4052019176        1.3375621412       -0.0246425810
 C         -2.4406657374        2.3273175272       -0.0738634918
 C         -1.0989115174        2.0008285706       -0.0698110720
 C         -0.6985924669        0.6620275971       -0.0140155264
 C          0.6902618553        0.2424551661       -0.0037562064
 C          1.7636290762        1.0429909049       -0.1058637635
 C          3.1436466242        0.6232172168       -0.0988624142
 C          3.6266501013       -0.6091129937        0.0154395231
 F          2.9451423415       -1.7414938823        0.1503079449
 F          4.9299035225       -0.8865312678        0.0095296006
 C         -1.6850951479       -0.3235848723        0.0368144725
 H         -4.7714351908       -3.0065616420        0.0511940141
 H         -2.9638519635       -2.8048795606       -0.0857363005
 H         -5.0934394169       -0.6216197760        0.1610666666
 H         -4.4519907541        1.6061398366       -0.0288416262
 H         -2.7392601150        3.3649160865       -0.1142173223
 H         -0.3632276988        2.7888417015       -0.1039490763
 H          0.8339333139       -0.8246637007        0.0905862482
 H          1.6339658011        2.1103548162       -0.2081376947
 H          3.8922222323        1.3955545823       -0.1979482938
 H         -1.3777430572       -1.3571418400        0.0879397636
  24
        -40.17772884
 C         -5.2368807851       -1.2328544543        0.0427844461
 C         -3.9148141170       -1.3250441765       -0.0300462107
 C         -2.9595792734       -0.2219474825       -0.0168600499
 C         -3.3502509633        1.1189204868       -0.0056235457
 C         -2.4008127956        2.1230461356        0.0055628896
 C         -1.0541113574        1.8146806427        0.0064702349
 C         -0.6275276768        0.4827223365       -0.0038682006
 C          0.7982870573        0.2154201327       -0.0017797643
 C          1.3828745825       -0.9931397226        0.0318879511
 C          2.8015554825       -1.2536856798        0.0355357444
 C          3.7979391787       -0.3755603469        0.0008770749
 F          3.7145003138        0.9494016812       -0.0453997720
 F          5.0828534995       -0.7282933826        0.0083134341
 C         -1.5991483231       -0.5178502680       -0.0180921288
 H         -5.8597315838       -2.1107624935        0.0273085369
 H         -5.7544328680       -0.2924560746        0.1231344247
 H         -3.4636865032       -2.3076595366       -0.1017996975
 H         -4.3972424852        1.3776204938       -0.0106899529
 H         -2.7141269735        3.1569647112        0.0123890767
 H         -0.3194029119        2.6067319748        0.0152550531
 H          1.4169095152        1.1014310874       -0.0259359158
 H          0.7766949643       -1.8865772593        0.0620984245
 H          3.1107648013       -2.2880537555        0.0703246407
 H         -1.2995971701       -1.5552517778       -0.0313122347
  24
        -40.17765301
 C         -4.0344595160       -2.2546220973        0.1999290128
 C         -4.1409749278       -0.9526370920       -0.0336537371
 C         -3.0565140212        0.0244788428       -0.0404706910
 C         -3.3766901328        1.3840143521       -0.0672642406
 C         -2.3802741907        2.3420992384       -0.0615825098
 C         -1.0525527278        1.9631642547       -0.0381519202
 C         -0.6966844857        0.6099163639       -0.0263711241
 C          0.7140157608        0.2702111750       -0.0137709335
 C          1.2374628814       -0.9636102824       -0.0969651862
 C          2.6408884769       -1.2967329702       -0.0857878312
 C          3.6790656669       -0.4751754428        0.0246121854
 F          3.6612202135        0.8470614389        0.1504289504
 F          4.9443430397       -0.8928976343        0.0240957982
 C         -1.7147056496       -0.3430032994       -0.0254084471
 H         -4.8979160940       -2.8973723251        0.1891739060
 H         -3.0958339827       -2.7341414291        0.4192037532
 H         -5.1215984301       -0.5342978196       -0.2260988300
 H         -4.4143106406        1.6855158661       -0.0845980917
 H         -2.6410621510        3.3903089820       -0.0765823833
 H         -0.2767099240        2.7150162292       -0.0358779315
 H          1.3760924888        1.1211105788        0.0627813357
 H          0.5877125557       -1.8216254051       -0.1877622939
 H          2.8982603546       -2.3418074821       -0.1764803673
 H         -1.4608320840       -1.3903381825       -0.0168597752
